27112
  -OEChem-05171416412D

 25 26  0     1  0  0  0  0  0999 V2000
    5.1904   -6.0050    0.0000 C   0  0  0  0  0  0  0  0  0  0  0  0
    5.1918   -5.0050    0.0000 C   0  0  0  0  0  0  0  0  0  0  0  0
    4.3265   -4.5038    0.0000 C   0  0  0  0  0  0  0  0  0  0  0  0
    4.3280   -3.5038    0.0000 N   0  0  0  0  0  0  0  0  0  0  0  0
    3.4627   -3.0025    0.0000 C   0  0  0  0  0  0  0  0  0  0  0  0
    3.4641   -2.0025    0.0000 C   0  0  3  0  0  0  0  0  0  0  0  0
    4.3309   -1.5038    0.0000 O   0  0  0  0  0  0  0  0  0  0  0  0
    2.5988   -1.5013    0.0000 C   0  0  0  0  0  0  0  0  0  0  0  0
    2.6003   -0.5013    0.0000 O   0  0  0  0  0  0  0  0  0  0  0  0
    1.7350    0.0000    0.0000 C   0  0  0  0  0  0  0  0  0  0  0  0
    0.8675   -0.4975    0.0000 C   0  0  0  0  0  0  0  0  0  0  0  0
    0.0000    0.0000    0.0000 C   0  0  0  0  0  0  0  0  0  0  0  0
   -0.0000    1.0052    0.0000 C   0  0  0  0  0  0  0  0  0  0  0  0
    0.8675    1.5129    0.0000 C   0  0  0  0  0  0  0  0  0  0  0  0
    1.7350    1.0052    0.0000 C   0  0  0  0  0  0  0  0  0  0  0  0
    2.6025    1.5026    0.0000 C   0  0  0  0  0  0  0  0  0  0  0  0
    3.4670    1.0001    0.0000 O   0  0  0  0  0  0  0  0  0  0  0  0
    2.6054    2.5026    0.0000 C   0  0  0  0  0  0  0  0  0  0  0  0
    3.4729    3.0001    0.0000 C   0  0  0  0  0  0  0  0  0  0  0  0
    3.4759    4.0001    0.0000 C   0  0  0  0  0  0  0  0  0  0  0  0
    2.6054    4.5027    0.0000 C   0  0  0  0  0  0  0  0  0  0  0  0
    2.6083    5.5027    0.0000 C   0  0  0  0  0  0  0  0  0  0  0  0
    3.4729    6.0052    0.0000 C   0  0  0  0  0  0  0  0  0  0  0  0
    4.3434    5.5026    0.0000 C   0  0  0  0  0  0  0  0  0  0  0  0
    4.3493    4.4975    0.0000 C   0  0  0  0  0  0  0  0  0  0  0  0
  1  2  1  0  0  0  0
  2  3  1  0  0  0  0
  3  4  1  0  0  0  0
  4  5  1  0  0  0  0
  5  6  1  0  0  0  0
  6  7  1  0  0  0  0
  6  8  1  0  0  0  0
  8  9  1  0  0  0  0
  9 10  1  0  0  0  0
 10 15  2  0  0  0  0
 10 11  1  0  0  0  0
 11 12  2  0  0  0  0
 12 13  1  0  0  0  0
 13 14  2  0  0  0  0
 14 15  1  0  0  0  0
 15 16  1  0  0  0  0
 16 17  2  0  0  0  0
 16 18  1  0  0  0  0
 18 19  1  0  0  0  0
 19 20  1  0  0  0  0
 20 25  2  0  0  0  0
 20 21  1  0  0  0  0
 21 22  2  0  0  0  0
 22 23  1  0  0  0  0
 23 24  2  0  0  0  0
 24 25  1  0  0  0  0
M  END
> <ID>
27112

$$$$
1151932
  -OEChem-05171416412D

 26 27  0     1  0  0  0  0  0999 V2000
    8.6617   -1.0101    0.0000 C   0  0  0  0  0  0  0  0  0  0  0  0
    7.7964   -0.5088    0.0000 C   0  0  0  0  0  0  0  0  0  0  0  0
    6.9297   -1.0075    0.0000 C   0  0  0  0  0  0  0  0  0  0  0  0
    6.0644   -0.5063    0.0000 N   0  0  0  0  0  0  0  0  0  0  0  0
    5.1976   -1.0050    0.0000 C   0  0  0  0  0  0  0  0  0  0  0  0
    4.3323   -0.5038    0.0000 C   0  0  1  0  0  0  0  0  0  0  0  0
    3.8311   -1.3691    0.0000 H   0  0  0  0  0  0  0  0  0  0  0  0
    4.8336    0.3615    0.0000 O   0  0  0  0  0  0  0  0  0  0  0  0
    3.4670   -0.0025    0.0000 C   0  0  0  0  0  0  0  0  0  0  0  0
    2.6003   -0.5013    0.0000 O   0  0  0  0  0  0  0  0  0  0  0  0
    1.7350    0.0000    0.0000 C   0  0  0  0  0  0  0  0  0  0  0  0
    0.8675   -0.4975    0.0000 C   0  0  0  0  0  0  0  0  0  0  0  0
    0.0000    0.0000    0.0000 C   0  0  0  0  0  0  0  0  0  0  0  0
   -0.0000    1.0052    0.0000 C   0  0  0  0  0  0  0  0  0  0  0  0
    0.8675    1.5129    0.0000 C   0  0  0  0  0  0  0  0  0  0  0  0
    1.7350    1.0052    0.0000 C   0  0  0  0  0  0  0  0  0  0  0  0
    2.6025    1.5026    0.0000 C   0  0  0  0  0  0  0  0  0  0  0  0
    3.4670    1.0001    0.0000 O   0  0  0  0  0  0  0  0  0  0  0  0
    2.6054    2.5026    0.0000 C   0  0  0  0  0  0  0  0  0  0  0  0
    3.4729    3.0001    0.0000 C   0  0  0  0  0  0  0  0  0  0  0  0
    3.4759    4.0001    0.0000 C   0  0  0  0  0  0  0  0  0  0  0  0
    2.6054    4.5027    0.0000 C   0  0  0  0  0  0  0  0  0  0  0  0
    2.6083    5.5027    0.0000 C   0  0  0  0  0  0  0  0  0  0  0  0
    3.4729    6.0052    0.0000 C   0  0  0  0  0  0  0  0  0  0  0  0
    4.3434    5.5026    0.0000 C   0  0  0  0  0  0  0  0  0  0  0  0
    4.3493    4.4975    0.0000 C   0  0  0  0  0  0  0  0  0  0  0  0
  1  2  1  0  0  0  0
  2  3  1  0  0  0  0
  3  4  1  0  0  0  0
  4  5  1  0  0  0  0
  5  6  1  0  0  0  0
  6  7  1  1  0  0  0
  6  8  1  0  0  0  0
  6  9  1  0  0  0  0
  9 10  1  0  0  0  0
 10 11  1  0  0  0  0
 11 16  2  0  0  0  0
 11 12  1  0  0  0  0
 12 13  2  0  0  0  0
 13 14  1  0  0  0  0
 14 15  2  0  0  0  0
 15 16  1  0  0  0  0
 16 17  1  0  0  0  0
 17 18  2  0  0  0  0
 17 19  1  0  0  0  0
 19 20  1  0  0  0  0
 20 21  1  0  0  0  0
 21 26  2  0  0  0  0
 21 22  1  0  0  0  0
 22 23  2  0  0  0  0
 23 24  1  0  0  0  0
 24 25  2  0  0  0  0
 25 26  1  0  0  0  0
M  END
> <ID>
1151932

$$$$
746559
  -OEChem-05171416412D

 26 27  0     1  0  0  0  0  0999 V2000
    8.6617   -1.0101    0.0000 C   0  0  0  0  0  0  0  0  0  0  0  0
    7.7964   -0.5088    0.0000 C   0  0  0  0  0  0  0  0  0  0  0  0
    6.9297   -1.0075    0.0000 C   0  0  0  0  0  0  0  0  0  0  0  0
    6.0644   -0.5063    0.0000 N   0  0  0  0  0  0  0  0  0  0  0  0
    5.1976   -1.0050    0.0000 C   0  0  0  0  0  0  0  0  0  0  0  0
    4.3323   -0.5038    0.0000 C   0  0  2  0  0  0  0  0  0  0  0  0
    3.8311   -1.3691    0.0000 H   0  0  0  0  0  0  0  0  0  0  0  0
    4.8336    0.3615    0.0000 O   0  0  0  0  0  0  0  0  0  0  0  0
    3.4670   -0.0025    0.0000 C   0  0  0  0  0  0  0  0  0  0  0  0
    2.6003   -0.5013    0.0000 O   0  0  0  0  0  0  0  0  0  0  0  0
    1.7350    0.0000    0.0000 C   0  0  0  0  0  0  0  0  0  0  0  0
    0.8675   -0.4975    0.0000 C   0  0  0  0  0  0  0  0  0  0  0  0
    0.0000    0.0000    0.0000 C   0  0  0  0  0  0  0  0  0  0  0  0
   -0.0000    1.0052    0.0000 C   0  0  0  0  0  0  0  0  0  0  0  0
    0.8675    1.5129    0.0000 C   0  0  0  0  0  0  0  0  0  0  0  0
    1.7350    1.0052    0.0000 C   0  0  0  0  0  0  0  0  0  0  0  0
    2.6025    1.5026    0.0000 C   0  0  0  0  0  0  0  0  0  0  0  0
    3.4670    1.0001    0.0000 O   0  0  0  0  0  0  0  0  0  0  0  0
    2.6054    2.5026    0.0000 C   0  0  0  0  0  0  0  0  0  0  0  0
    3.4729    3.0001    0.0000 C   0  0  0  0  0  0  0  0  0  0  0  0
    3.4759    4.0001    0.0000 C   0  0  0  0  0  0  0  0  0  0  0  0
    2.6054    4.5027    0.0000 C   0  0  0  0  0  0  0  0  0  0  0  0
    2.6083    5.5027    0.0000 C   0  0  0  0  0  0  0  0  0  0  0  0
    3.4729    6.0052    0.0000 C   0  0  0  0  0  0  0  0  0  0  0  0
    4.3434    5.5026    0.0000 C   0  0  0  0  0  0  0  0  0  0  0  0
    4.3493    4.4975    0.0000 C   0  0  0  0  0  0  0  0  0  0  0  0
  1  2  1  0  0  0  0
  2  3  1  0  0  0  0
  3  4  1  0  0  0  0
  4  5  1  0  0  0  0
  5  6  1  0  0  0  0
  6  7  1  6  0  0  0
  6  8  1  0  0  0  0
  6  9  1  0  0  0  0
  9 10  1  0  0  0  0
 10 11  1  0  0  0  0
 11 16  2  0  0  0  0
 11 12  1  0  0  0  0
 12 13  2  0  0  0  0
 13 14  1  0  0  0  0
 14 15  2  0  0  0  0
 15 16  1  0  0  0  0
 16 17  1  0  0  0  0
 17 18  2  0  0  0  0
 17 19  1  0  0  0  0
 19 20  1  0  0  0  0
 20 21  1  0  0  0  0
 21 26  2  0  0  0  0
 21 22  1  0  0  0  0
 22 23  2  0  0  0  0
 23 24  1  0  0  0  0
 24 25  2  0  0  0  0
 25 26  1  0  0  0  0
M  END
> <ID>
746559

$$$$
238255
  -OEChem-05171416412D

 27 29  0     1  0  0  0  0  0999 V2000
   -3.4687    6.0100    0.0000 C   0  0  0  0  0  0  0  0  0  0  0  0
   -2.6019    5.5113    0.0000 C   0  0  0  0  0  0  0  0  0  0  0  0
   -2.6004    4.5113    0.0000 O   0  0  0  0  0  0  0  0  0  0  0  0
   -1.7367    6.0126    0.0000 C   0  0  0  0  0  0  0  0  0  0  0  0
   -1.7367    7.0127    0.0000 C   0  0  0  0  0  0  0  0  0  0  0  0
   -0.8736    7.5177    0.0000 C   0  0  0  0  0  0  0  0  0  0  0  0
   -0.0016    7.0177    0.0000 C   0  0  0  0  0  0  0  0  0  0  0  0
    0.0073    6.0126    0.0000 C   0  0  0  0  0  0  0  0  0  0  0  0
   -0.8647    5.5126    0.0000 C   0  0  0  0  0  0  0  0  0  0  0  0
   -0.8647    4.5126    0.0000 O   0  0  0  0  0  0  0  0  0  0  0  0
    0.0014    4.0126    0.0000 C   0  0  0  0  0  0  0  0  0  0  0  0
    0.0014    3.0126    0.0000 C   0  0  3  0  0  0  0  0  0  0  0  0
   -0.8647    2.5126    0.0000 O   0  0  0  0  0  0  0  0  0  0  0  0
    0.8674    2.5126    0.0000 C   0  0  0  0  0  0  0  0  0  0  0  0
    0.8674    1.5126    0.0000 N   0  0  0  0  0  0  0  0  0  0  0  0
    0.0000    1.0051    0.0000 C   0  0  0  0  0  0  0  0  0  0  0  0
    0.0000    0.0000    0.0000 C   0  0  0  0  0  0  0  0  0  0  0  0
    0.8674   -0.4976    0.0000 N   0  0  0  0  0  0  0  0  0  0  0  0
    1.7348    0.0000    0.0000 C   0  0  0  0  0  0  0  0  0  0  0  0
    1.7348    1.0051    0.0000 C   0  0  0  0  0  0  0  0  0  0  0  0
    0.8674   -1.4976    0.0000 C   0  0  0  0  0  0  0  0  0  0  0  0
    1.7394   -1.9976    0.0000 C   0  0  0  0  0  0  0  0  0  0  0  0
    1.7395   -2.9977    0.0000 C   0  0  0  0  0  0  0  0  0  0  0  0
    0.8763   -3.5027    0.0000 C   0  0  0  0  0  0  0  0  0  0  0  0
    0.8807   -4.5027    0.0000 F   0  0  0  0  0  0  0  0  0  0  0  0
    0.0043   -3.0027    0.0000 C   0  0  0  0  0  0  0  0  0  0  0  0
   -0.0046   -1.9976    0.0000 C   0  0  0  0  0  0  0  0  0  0  0  0
  1  2  1  0  0  0  0
  2  3  2  0  0  0  0
  2  4  1  0  0  0  0
  4  9  2  0  0  0  0
  4  5  1  0  0  0  0
  5  6  2  0  0  0  0
  6  7  1  0  0  0  0
  7  8  2  0  0  0  0
  8  9  1  0  0  0  0
  9 10  1  0  0  0  0
 10 11  1  0  0  0  0
 11 12  1  0  0  0  0
 12 13  1  0  0  0  0
 12 14  1  0  0  0  0
 14 15  1  0  0  0  0
 15 20  1  0  0  0  0
 15 16  1  0  0  0  0
 16 17  1  0  0  0  0
 17 18  1  0  0  0  0
 18 19  1  0  0  0  0
 19 20  1  0  0  0  0
 18 21  1  0  0  0  0
 21 27  2  0  0  0  0
 21 22  1  0  0  0  0
 22 23  2  0  0  0  0
 23 24  1  0  0  0  0
 24 25  1  0  0  0  0
 24 26  2  0  0  0  0
 26 27  1  0  0  0  0
M  END
> <ID>
238255

$$$$
243521
  -OEChem-05171416412D

 27 29  0     1  0  0  0  0  0999 V2000
   -1.7321    3.0104    0.0000 O   0  0  0  0  0  0  0  0  0  0  0  0
   -0.8660    3.5104    0.0000 C   0  0  3  0  0  0  0  0  0  0  0  0
   -0.8660    4.5104    0.0000 C   0  0  0  0  0  0  0  0  0  0  0  0
   -1.7321    5.0104    0.0000 O   0  0  0  0  0  0  0  0  0  0  0  0
   -1.7321    6.0104    0.0000 C   0  0  0  0  0  0  0  0  0  0  0  0
   -2.5974    6.5117    0.0000 C   0  0  0  0  0  0  0  0  0  0  0  0
   -2.6017    7.5117    0.0000 C   0  0  0  0  0  0  0  0  0  0  0  0
   -1.7319    8.0156    0.0000 C   0  0  0  0  0  0  0  0  0  0  0  0
   -0.8578    7.5194    0.0000 C   0  0  0  0  0  0  0  0  0  0  0  0
   -0.8623    6.5143    0.0000 C   0  0  0  0  0  0  0  0  0  0  0  0
    0.0030    6.0130    0.0000 C   0  0  3  0  0  0  0  0  0  0  0  0
    0.0015    5.0130    0.0000 O   0  0  0  0  0  0  0  0  0  0  0  0
    0.8698    6.5117    0.0000 C   0  0  0  0  0  0  0  0  0  0  0  0
    1.7351    6.0104    0.0000 C   0  0  0  0  0  0  0  0  0  0  0  0
    2.6018    6.5091    0.0000 C   0  0  0  0  0  0  0  0  0  0  0  0
    2.6004    7.5143    0.0000 C   0  0  0  0  0  0  0  0  0  0  0  0
    3.4672    8.0130    0.0000 C   0  0  0  0  0  0  0  0  0  0  0  0
    4.3354    7.5168    0.0000 C   0  0  0  0  0  0  0  0  0  0  0  0
    4.3368    6.5116    0.0000 C   0  0  0  0  0  0  0  0  0  0  0  0
    3.4701    6.0026    0.0000 C   0  0  0  0  0  0  0  0  0  0  0  0
   -0.0000    3.0104    0.0000 C   0  0  0  0  0  0  0  0  0  0  0  0
   -0.0000    2.0104    0.0000 N   0  0  0  0  0  0  0  0  0  0  0  0
   -0.8675    1.5027    0.0000 C   0  0  0  0  0  0  0  0  0  0  0  0
   -0.8675    0.4975    0.0000 C   0  0  0  0  0  0  0  0  0  0  0  0
    0.0000    0.0000    0.0000 C   0  0  0  0  0  0  0  0  0  0  0  0
    0.8675    0.4975    0.0000 C   0  0  0  0  0  0  0  0  0  0  0  0
    0.8675    1.5027    0.0000 C   0  0  0  0  0  0  0  0  0  0  0  0
  1  2  1  0  0  0  0
  2  3  1  0  0  0  0
  3  4  1  0  0  0  0
  4  5  1  0  0  0  0
  5 10  2  0  0  0  0
  5  6  1  0  0  0  0
  6  7  2  0  0  0  0
  7  8  1  0  0  0  0
  8  9  2  0  0  0  0
  9 10  1  0  0  0  0
 10 11  1  0  0  0  0
 11 12  1  0  0  0  0
 11 13  1  0  0  0  0
 13 14  1  0  0  0  0
 14 15  1  0  0  0  0
 15 20  2  0  0  0  0
 15 16  1  0  0  0  0
 16 17  2  0  0  0  0
 17 18  1  0  0  0  0
 18 19  2  0  0  0  0
 19 20  1  0  0  0  0
  2 21  1  0  0  0  0
 21 22  1  0  0  0  0
 22 27  1  0  0  0  0
 22 23  1  0  0  0  0
 23 24  1  0  0  0  0
 24 25  1  0  0  0  0
 25 26  1  0  0  0  0
 26 27  1  0  0  0  0
M  END
> <ID>
243521

$$$$
372315
  -OEChem-05171416412D

 25 27  0     1  0  0  0  0  0999 V2000
    8.2857    2.2346    0.0000 C   0  0  0  0  0  0  0  0  0  0  0  0
    7.2857    2.2346    0.0000 C   0  0  0  0  0  0  0  0  0  0  0  0
    6.7857    1.3685    0.0000 C   0  0  0  0  0  0  0  0  0  0  0  0
    5.7857    1.3685    0.0000 N   0  0  0  0  0  0  0  0  0  0  0  0
    5.2858    0.5024    0.0000 C   0  0  0  0  0  0  0  0  0  0  0  0
    4.2858    0.5024    0.0000 C   0  0  2  0  0  0  0  0  0  0  0  0
    4.2859   -0.4976    0.0000 H   0  0  0  0  0  0  0  0  0  0  0  0
    4.2857    1.5024    0.0000 O   0  0  0  0  0  0  0  0  0  0  0  0
    3.2858    0.5023    0.0000 C   0  0  0  0  0  0  0  0  0  0  0  0
    2.6938    1.3169    0.0000 O   0  0  0  0  0  0  0  0  0  0  0  0
    1.7360    1.0058    0.0000 C   0  0  0  0  0  0  0  0  0  0  0  0
    0.8680    1.5138    0.0000 C   0  0  0  0  0  0  0  0  0  0  0  0
    0.0000    1.0058    0.0000 C   0  0  0  0  0  0  0  0  0  0  0  0
    0.0000    0.0000    0.0000 C   0  0  0  0  0  0  0  0  0  0  0  0
    0.8680   -0.4978    0.0000 C   0  0  0  0  0  0  0  0  0  0  0  0
    1.7360   -0.0012    0.0000 C   0  0  0  0  0  0  0  0  0  0  0  0
    2.6938   -0.3125    0.0000 C   0  0  0  0  0  0  0  0  0  0  0  0
    3.0028   -1.2636    0.0000 C   0  0  0  0  0  0  0  0  0  0  0  0
    3.9809   -1.4715    0.0000 C   0  0  0  0  0  0  0  0  0  0  0  0
    4.2899   -2.4226    0.0000 C   0  0  0  0  0  0  0  0  0  0  0  0
    5.2737   -2.6287    0.0000 C   0  0  0  0  0  0  0  0  0  0  0  0
    5.5827   -3.5798    0.0000 C   0  0  0  0  0  0  0  0  0  0  0  0
    4.9179   -4.3269    0.0000 C   0  0  0  0  0  0  0  0  0  0  0  0
    3.9341   -4.1207    0.0000 C   0  0  0  0  0  0  0  0  0  0  0  0
    3.6151   -3.1676    0.0000 C   0  0  0  0  0  0  0  0  0  0  0  0
  1  2  1  0  0  0  0
  2  3  1  0  0  0  0
  3  4  1  0  0  0  0
  4  5  1  0  0  0  0
  5  6  1  0  0  0  0
  6  7  1  6  0  0  0
  6  8  1  0  0  0  0
  6  9  1  0  0  0  0
  9 17  2  0  0  0  0
  9 10  1  0  0  0  0
 10 11  1  0  0  0  0
 11 16  2  0  0  0  0
 11 12  1  0  0  0  0
 12 13  2  0  0  0  0
 13 14  1  0  0  0  0
 14 15  2  0  0  0  0
 15 16  1  0  0  0  0
 16 17  1  0  0  0  0
 17 18  1  0  0  0  0
 18 19  1  0  0  0  0
 19 20  1  0  0  0  0
 20 25  2  0  0  0  0
 20 21  1  0  0  0  0
 21 22  2  0  0  0  0
 22 23  1  0  0  0  0
 23 24  2  0  0  0  0
 24 25  1  0  0  0  0
M  END
> <ID>
372315

$$$$
372316
  -OEChem-05171416412D

 25 27  0     1  0  0  0  0  0999 V2000
    8.2857    2.2346    0.0000 C   0  0  0  0  0  0  0  0  0  0  0  0
    7.2857    2.2346    0.0000 C   0  0  0  0  0  0  0  0  0  0  0  0
    6.7857    1.3685    0.0000 C   0  0  0  0  0  0  0  0  0  0  0  0
    5.7857    1.3685    0.0000 N   0  0  0  0  0  0  0  0  0  0  0  0
    5.2858    0.5024    0.0000 C   0  0  0  0  0  0  0  0  0  0  0  0
    4.2858    0.5024    0.0000 C   0  0  1  0  0  0  0  0  0  0  0  0
    4.2859   -0.4976    0.0000 H   0  0  0  0  0  0  0  0  0  0  0  0
    4.2857    1.5024    0.0000 O   0  0  0  0  0  0  0  0  0  0  0  0
    3.2858    0.5023    0.0000 C   0  0  0  0  0  0  0  0  0  0  0  0
    2.6938    1.3169    0.0000 O   0  0  0  0  0  0  0  0  0  0  0  0
    1.7360    1.0058    0.0000 C   0  0  0  0  0  0  0  0  0  0  0  0
    0.8680    1.5138    0.0000 C   0  0  0  0  0  0  0  0  0  0  0  0
    0.0000    1.0058    0.0000 C   0  0  0  0  0  0  0  0  0  0  0  0
    0.0000    0.0000    0.0000 C   0  0  0  0  0  0  0  0  0  0  0  0
    0.8680   -0.4978    0.0000 C   0  0  0  0  0  0  0  0  0  0  0  0
    1.7360   -0.0012    0.0000 C   0  0  0  0  0  0  0  0  0  0  0  0
    2.6938   -0.3125    0.0000 C   0  0  0  0  0  0  0  0  0  0  0  0
    3.0028   -1.2636    0.0000 C   0  0  0  0  0  0  0  0  0  0  0  0
    3.9809   -1.4715    0.0000 C   0  0  0  0  0  0  0  0  0  0  0  0
    4.2899   -2.4226    0.0000 C   0  0  0  0  0  0  0  0  0  0  0  0
    5.2737   -2.6287    0.0000 C   0  0  0  0  0  0  0  0  0  0  0  0
    5.5827   -3.5798    0.0000 C   0  0  0  0  0  0  0  0  0  0  0  0
    4.9179   -4.3269    0.0000 C   0  0  0  0  0  0  0  0  0  0  0  0
    3.9341   -4.1207    0.0000 C   0  0  0  0  0  0  0  0  0  0  0  0
    3.6151   -3.1676    0.0000 C   0  0  0  0  0  0  0  0  0  0  0  0
  1  2  1  0  0  0  0
  2  3  1  0  0  0  0
  3  4  1  0  0  0  0
  4  5  1  0  0  0  0
  5  6  1  0  0  0  0
  6  7  1  1  0  0  0
  6  8  1  0  0  0  0
  6  9  1  0  0  0  0
  9 17  2  0  0  0  0
  9 10  1  0  0  0  0
 10 11  1  0  0  0  0
 11 16  2  0  0  0  0
 11 12  1  0  0  0  0
 12 13  2  0  0  0  0
 13 14  1  0  0  0  0
 14 15  2  0  0  0  0
 15 16  1  0  0  0  0
 16 17  1  0  0  0  0
 17 18  1  0  0  0  0
 18 19  1  0  0  0  0
 19 20  1  0  0  0  0
 20 25  2  0  0  0  0
 20 21  1  0  0  0  0
 21 22  2  0  0  0  0
 22 23  1  0  0  0  0
 23 24  2  0  0  0  0
 24 25  1  0  0  0  0
M  END
> <ID>
372316

$$$$
1591031
  -OEChem-05171416412D

 29 31  0     1  0  0  0  0  0999 V2000
    0.3660    4.3764    0.0000 O   0  0  0  0  0  0  0  0  0  0  0  0
    0.8660    3.5104    0.0000 C   0  0  2  0  0  0  0  0  0  0  0  0
    1.3660    2.6444    0.0000 H   0  0  0  0  0  0  0  0  0  0  0  0
    1.7321    4.0104    0.0000 C   0  0  0  0  0  0  0  0  0  0  0  0
    1.7321    5.0104    0.0000 O   0  0  0  0  0  0  0  0  0  0  0  0
    2.5981    5.5104    0.0000 C   0  0  0  0  0  0  0  0  0  0  0  0
    3.4649    5.0116    0.0000 C   0  0  0  0  0  0  0  0  0  0  0  0
    4.3331    5.5079    0.0000 C   0  0  0  0  0  0  0  0  0  0  0  0
    4.3345    6.5131    0.0000 C   0  0  0  0  0  0  0  0  0  0  0  0
    3.4678    7.0220    0.0000 C   0  0  0  0  0  0  0  0  0  0  0  0
    2.5995    6.5156    0.0000 C   0  0  0  0  0  0  0  0  0  0  0  0
    1.7328    7.0143    0.0000 C   0  0  1  0  0  0  0  0  0  0  0  0
    2.2315    7.8811    0.0000 H   0  0  0  0  0  0  0  0  0  0  0  0
    1.2341    6.1475    0.0000 O   0  0  0  0  0  0  0  0  0  0  0  0
    0.8660    7.5130    0.0000 C   0  0  0  0  0  0  0  0  0  0  0  0
    0.8645    8.5130    0.0000 C   0  0  0  0  0  0  0  0  0  0  0  0
   -0.0023    9.0117    0.0000 C   0  0  0  0  0  0  0  0  0  0  0  0
   -0.0008   10.0169    0.0000 C   0  0  0  0  0  0  0  0  0  0  0  0
   -0.8676   10.5157    0.0000 C   0  0  0  0  0  0  0  0  0  0  0  0
   -1.7358   10.0194    0.0000 C   0  0  0  0  0  0  0  0  0  0  0  0
   -1.7373    9.0142    0.0000 C   0  0  0  0  0  0  0  0  0  0  0  0
   -0.8705    8.5053    0.0000 C   0  0  0  0  0  0  0  0  0  0  0  0
   -0.0000    3.0104    0.0000 C   0  0  0  0  0  0  0  0  0  0  0  0
   -0.0000    2.0104    0.0000 N   0  0  0  0  0  0  0  0  0  0  0  0
   -0.8675    1.5027    0.0000 C   0  0  0  0  0  0  0  0  0  0  0  0
   -0.8675    0.4975    0.0000 C   0  0  0  0  0  0  0  0  0  0  0  0
    0.0000    0.0000    0.0000 C   0  0  0  0  0  0  0  0  0  0  0  0
    0.8675    0.4975    0.0000 C   0  0  0  0  0  0  0  0  0  0  0  0
    0.8675    1.5027    0.0000 C   0  0  0  0  0  0  0  0  0  0  0  0
  1  2  1  0  0  0  0
  2  3  1  1  0  0  0
  2  4  1  0  0  0  0
  4  5  1  0  0  0  0
  5  6  1  0  0  0  0
  6 11  2  0  0  0  0
  6  7  1  0  0  0  0
  7  8  2  0  0  0  0
  8  9  1  0  0  0  0
  9 10  2  0  0  0  0
 10 11  1  0  0  0  0
 11 12  1  0  0  0  0
 12 13  1  6  0  0  0
 12 14  1  0  0  0  0
 12 15  1  0  0  0  0
 15 16  1  0  0  0  0
 16 17  1  0  0  0  0
 17 22  2  0  0  0  0
 17 18  1  0  0  0  0
 18 19  2  0  0  0  0
 19 20  1  0  0  0  0
 20 21  2  0  0  0  0
 21 22  1  0  0  0  0
  2 23  1  0  0  0  0
 23 24  1  0  0  0  0
 24 29  1  0  0  0  0
 24 25  1  0  0  0  0
 25 26  1  0  0  0  0
 26 27  1  0  0  0  0
 27 28  1  0  0  0  0
 28 29  1  0  0  0  0
M  END
> <ID>
1591031

$$$$
1591032
  -OEChem-05171416412D

 29 31  0     1  0  0  0  0  0999 V2000
    0.3660    4.3764    0.0000 O   0  0  0  0  0  0  0  0  0  0  0  0
    0.8660    3.5104    0.0000 C   0  0  1  0  0  0  0  0  0  0  0  0
    1.3660    2.6444    0.0000 H   0  0  0  0  0  0  0  0  0  0  0  0
    1.7321    4.0104    0.0000 C   0  0  0  0  0  0  0  0  0  0  0  0
    1.7321    5.0104    0.0000 O   0  0  0  0  0  0  0  0  0  0  0  0
    2.5981    5.5104    0.0000 C   0  0  0  0  0  0  0  0  0  0  0  0
    3.4649    5.0116    0.0000 C   0  0  0  0  0  0  0  0  0  0  0  0
    4.3331    5.5079    0.0000 C   0  0  0  0  0  0  0  0  0  0  0  0
    4.3345    6.5131    0.0000 C   0  0  0  0  0  0  0  0  0  0  0  0
    3.4678    7.0220    0.0000 C   0  0  0  0  0  0  0  0  0  0  0  0
    2.5995    6.5156    0.0000 C   0  0  0  0  0  0  0  0  0  0  0  0
    1.7328    7.0143    0.0000 C   0  0  1  0  0  0  0  0  0  0  0  0
    2.2315    7.8811    0.0000 H   0  0  0  0  0  0  0  0  0  0  0  0
    1.2341    6.1475    0.0000 O   0  0  0  0  0  0  0  0  0  0  0  0
    0.8660    7.5130    0.0000 C   0  0  0  0  0  0  0  0  0  0  0  0
    0.8645    8.5130    0.0000 C   0  0  0  0  0  0  0  0  0  0  0  0
   -0.0023    9.0117    0.0000 C   0  0  0  0  0  0  0  0  0  0  0  0
   -0.0008   10.0169    0.0000 C   0  0  0  0  0  0  0  0  0  0  0  0
   -0.8676   10.5157    0.0000 C   0  0  0  0  0  0  0  0  0  0  0  0
   -1.7358   10.0194    0.0000 C   0  0  0  0  0  0  0  0  0  0  0  0
   -1.7373    9.0142    0.0000 C   0  0  0  0  0  0  0  0  0  0  0  0
   -0.8705    8.5053    0.0000 C   0  0  0  0  0  0  0  0  0  0  0  0
   -0.0000    3.0104    0.0000 C   0  0  0  0  0  0  0  0  0  0  0  0
   -0.0000    2.0104    0.0000 N   0  0  0  0  0  0  0  0  0  0  0  0
   -0.8675    1.5027    0.0000 C   0  0  0  0  0  0  0  0  0  0  0  0
   -0.8675    0.4975    0.0000 C   0  0  0  0  0  0  0  0  0  0  0  0
    0.0000    0.0000    0.0000 C   0  0  0  0  0  0  0  0  0  0  0  0
    0.8675    0.4975    0.0000 C   0  0  0  0  0  0  0  0  0  0  0  0
    0.8675    1.5027    0.0000 C   0  0  0  0  0  0  0  0  0  0  0  0
  1  2  1  0  0  0  0
  2  3  1  6  0  0  0
  2  4  1  0  0  0  0
  4  5  1  0  0  0  0
  5  6  1  0  0  0  0
  6 11  2  0  0  0  0
  6  7  1  0  0  0  0
  7  8  2  0  0  0  0
  8  9  1  0  0  0  0
  9 10  2  0  0  0  0
 10 11  1  0  0  0  0
 11 12  1  0  0  0  0
 12 13  1  6  0  0  0
 12 14  1  0  0  0  0
 12 15  1  0  0  0  0
 15 16  1  0  0  0  0
 16 17  1  0  0  0  0
 17 22  2  0  0  0  0
 17 18  1  0  0  0  0
 18 19  2  0  0  0  0
 19 20  1  0  0  0  0
 20 21  2  0  0  0  0
 21 22  1  0  0  0  0
  2 23  1  0  0  0  0
 23 24  1  0  0  0  0
 24 29  1  0  0  0  0
 24 25  1  0  0  0  0
 25 26  1  0  0  0  0
 26 27  1  0  0  0  0
 27 28  1  0  0  0  0
 28 29  1  0  0  0  0
M  END
> <ID>
1591032

$$$$
1591033
  -OEChem-05171416412D

 29 31  0     1  0  0  0  0  0999 V2000
    0.3660    4.3764    0.0000 O   0  0  0  0  0  0  0  0  0  0  0  0
    0.8660    3.5104    0.0000 C   0  0  2  0  0  0  0  0  0  0  0  0
    1.3660    2.6444    0.0000 H   0  0  0  0  0  0  0  0  0  0  0  0
    1.7321    4.0104    0.0000 C   0  0  0  0  0  0  0  0  0  0  0  0
    1.7321    5.0104    0.0000 O   0  0  0  0  0  0  0  0  0  0  0  0
    2.5981    5.5104    0.0000 C   0  0  0  0  0  0  0  0  0  0  0  0
    3.4649    5.0116    0.0000 C   0  0  0  0  0  0  0  0  0  0  0  0
    4.3331    5.5079    0.0000 C   0  0  0  0  0  0  0  0  0  0  0  0
    4.3345    6.5131    0.0000 C   0  0  0  0  0  0  0  0  0  0  0  0
    3.4678    7.0220    0.0000 C   0  0  0  0  0  0  0  0  0  0  0  0
    2.5995    6.5156    0.0000 C   0  0  0  0  0  0  0  0  0  0  0  0
    1.7328    7.0143    0.0000 C   0  0  2  0  0  0  0  0  0  0  0  0
    2.2315    7.8811    0.0000 H   0  0  0  0  0  0  0  0  0  0  0  0
    1.2341    6.1475    0.0000 O   0  0  0  0  0  0  0  0  0  0  0  0
    0.8660    7.5130    0.0000 C   0  0  0  0  0  0  0  0  0  0  0  0
    0.8645    8.5130    0.0000 C   0  0  0  0  0  0  0  0  0  0  0  0
   -0.0023    9.0117    0.0000 C   0  0  0  0  0  0  0  0  0  0  0  0
   -0.0008   10.0169    0.0000 C   0  0  0  0  0  0  0  0  0  0  0  0
   -0.8676   10.5157    0.0000 C   0  0  0  0  0  0  0  0  0  0  0  0
   -1.7358   10.0194    0.0000 C   0  0  0  0  0  0  0  0  0  0  0  0
   -1.7373    9.0142    0.0000 C   0  0  0  0  0  0  0  0  0  0  0  0
   -0.8705    8.5053    0.0000 C   0  0  0  0  0  0  0  0  0  0  0  0
   -0.0000    3.0104    0.0000 C   0  0  0  0  0  0  0  0  0  0  0  0
   -0.0000    2.0104    0.0000 N   0  0  0  0  0  0  0  0  0  0  0  0
   -0.8675    1.5027    0.0000 C   0  0  0  0  0  0  0  0  0  0  0  0
   -0.8675    0.4975    0.0000 C   0  0  0  0  0  0  0  0  0  0  0  0
    0.0000    0.0000    0.0000 C   0  0  0  0  0  0  0  0  0  0  0  0
    0.8675    0.4975    0.0000 C   0  0  0  0  0  0  0  0  0  0  0  0
    0.8675    1.5027    0.0000 C   0  0  0  0  0  0  0  0  0  0  0  0
  1  2  1  0  0  0  0
  2  3  1  1  0  0  0
  2  4  1  0  0  0  0
  4  5  1  0  0  0  0
  5  6  1  0  0  0  0
  6 11  2  0  0  0  0
  6  7  1  0  0  0  0
  7  8  2  0  0  0  0
  8  9  1  0  0  0  0
  9 10  2  0  0  0  0
 10 11  1  0  0  0  0
 11 12  1  0  0  0  0
 12 13  1  1  0  0  0
 12 14  1  0  0  0  0
 12 15  1  0  0  0  0
 15 16  1  0  0  0  0
 16 17  1  0  0  0  0
 17 22  2  0  0  0  0
 17 18  1  0  0  0  0
 18 19  2  0  0  0  0
 19 20  1  0  0  0  0
 20 21  2  0  0  0  0
 21 22  1  0  0  0  0
  2 23  1  0  0  0  0
 23 24  1  0  0  0  0
 24 29  1  0  0  0  0
 24 25  1  0  0  0  0
 25 26  1  0  0  0  0
 26 27  1  0  0  0  0
 27 28  1  0  0  0  0
 28 29  1  0  0  0  0
M  END
> <ID>
1591033

$$$$
1591034
  -OEChem-05171416412D

 29 31  0     1  0  0  0  0  0999 V2000
    0.3660    4.3764    0.0000 O   0  0  0  0  0  0  0  0  0  0  0  0
    0.8660    3.5104    0.0000 C   0  0  1  0  0  0  0  0  0  0  0  0
    1.3660    2.6444    0.0000 H   0  0  0  0  0  0  0  0  0  0  0  0
    1.7321    4.0104    0.0000 C   0  0  0  0  0  0  0  0  0  0  0  0
    1.7321    5.0104    0.0000 O   0  0  0  0  0  0  0  0  0  0  0  0
    2.5981    5.5104    0.0000 C   0  0  0  0  0  0  0  0  0  0  0  0
    3.4649    5.0116    0.0000 C   0  0  0  0  0  0  0  0  0  0  0  0
    4.3331    5.5079    0.0000 C   0  0  0  0  0  0  0  0  0  0  0  0
    4.3345    6.5131    0.0000 C   0  0  0  0  0  0  0  0  0  0  0  0
    3.4678    7.0220    0.0000 C   0  0  0  0  0  0  0  0  0  0  0  0
    2.5995    6.5156    0.0000 C   0  0  0  0  0  0  0  0  0  0  0  0
    1.7328    7.0143    0.0000 C   0  0  2  0  0  0  0  0  0  0  0  0
    2.2315    7.8811    0.0000 H   0  0  0  0  0  0  0  0  0  0  0  0
    1.2341    6.1475    0.0000 O   0  0  0  0  0  0  0  0  0  0  0  0
    0.8660    7.5130    0.0000 C   0  0  0  0  0  0  0  0  0  0  0  0
    0.8645    8.5130    0.0000 C   0  0  0  0  0  0  0  0  0  0  0  0
   -0.0023    9.0117    0.0000 C   0  0  0  0  0  0  0  0  0  0  0  0
   -0.0008   10.0169    0.0000 C   0  0  0  0  0  0  0  0  0  0  0  0
   -0.8676   10.5157    0.0000 C   0  0  0  0  0  0  0  0  0  0  0  0
   -1.7358   10.0194    0.0000 C   0  0  0  0  0  0  0  0  0  0  0  0
   -1.7373    9.0142    0.0000 C   0  0  0  0  0  0  0  0  0  0  0  0
   -0.8705    8.5053    0.0000 C   0  0  0  0  0  0  0  0  0  0  0  0
   -0.0000    3.0104    0.0000 C   0  0  0  0  0  0  0  0  0  0  0  0
   -0.0000    2.0104    0.0000 N   0  0  0  0  0  0  0  0  0  0  0  0
   -0.8675    1.5027    0.0000 C   0  0  0  0  0  0  0  0  0  0  0  0
   -0.8675    0.4975    0.0000 C   0  0  0  0  0  0  0  0  0  0  0  0
    0.0000    0.0000    0.0000 C   0  0  0  0  0  0  0  0  0  0  0  0
    0.8675    0.4975    0.0000 C   0  0  0  0  0  0  0  0  0  0  0  0
    0.8675    1.5027    0.0000 C   0  0  0  0  0  0  0  0  0  0  0  0
  1  2  1  0  0  0  0
  2  3  1  6  0  0  0
  2  4  1  0  0  0  0
  4  5  1  0  0  0  0
  5  6  1  0  0  0  0
  6 11  2  0  0  0  0
  6  7  1  0  0  0  0
  7  8  2  0  0  0  0
  8  9  1  0  0  0  0
  9 10  2  0  0  0  0
 10 11  1  0  0  0  0
 11 12  1  0  0  0  0
 12 13  1  1  0  0  0
 12 14  1  0  0  0  0
 12 15  1  0  0  0  0
 15 16  1  0  0  0  0
 16 17  1  0  0  0  0
 17 22  2  0  0  0  0
 17 18  1  0  0  0  0
 18 19  2  0  0  0  0
 19 20  1  0  0  0  0
 20 21  2  0  0  0  0
 21 22  1  0  0  0  0
  2 23  1  0  0  0  0
 23 24  1  0  0  0  0
 24 29  1  0  0  0  0
 24 25  1  0  0  0  0
 25 26  1  0  0  0  0
 26 27  1  0  0  0  0
 27 28  1  0  0  0  0
 28 29  1  0  0  0  0
M  END
> <ID>
1591034

$$$$
372323
  -OEChem-05171416412D

 21 22  0     1  0  0  0  0  0999 V2000
    0.0015    5.0130    0.0000 C   0  0  0  0  0  0  0  0  0  0  0  0
    0.0030    6.0130    0.0000 C   0  0  0  0  0  0  0  0  0  0  0  0
    0.8698    6.5117    0.0000 O   0  0  0  0  0  0  0  0  0  0  0  0
   -0.8623    6.5143    0.0000 C   0  0  0  0  0  0  0  0  0  0  0  0
   -0.8578    7.5194    0.0000 C   0  0  0  0  0  0  0  0  0  0  0  0
   -1.7319    8.0156    0.0000 C   0  0  0  0  0  0  0  0  0  0  0  0
   -1.7363    9.0155    0.0000 C   0  0  0  0  0  0  0  0  0  0  0  0
   -2.6017    7.5117    0.0000 C   0  0  0  0  0  0  0  0  0  0  0  0
   -2.5974    6.5117    0.0000 C   0  0  0  0  0  0  0  0  0  0  0  0
   -1.7321    6.0104    0.0000 C   0  0  0  0  0  0  0  0  0  0  0  0
   -1.7321    5.0104    0.0000 O   0  0  0  0  0  0  0  0  0  0  0  0
   -0.8660    4.5104    0.0000 C   0  0  0  0  0  0  0  0  0  0  0  0
   -0.8660    3.5104    0.0000 C   0  0  3  0  0  0  0  0  0  0  0  0
   -1.7321    3.0104    0.0000 O   0  0  0  0  0  0  0  0  0  0  0  0
   -0.0000    3.0104    0.0000 C   0  0  0  0  0  0  0  0  0  0  0  0
   -0.0000    2.0104    0.0000 N   0  0  0  0  0  0  0  0  0  0  0  0
   -0.8675    1.5027    0.0000 C   0  0  0  0  0  0  0  0  0  0  0  0
   -0.8675    0.4975    0.0000 C   0  0  0  0  0  0  0  0  0  0  0  0
    0.0000    0.0000    0.0000 C   0  0  0  0  0  0  0  0  0  0  0  0
    0.8675    0.4975    0.0000 C   0  0  0  0  0  0  0  0  0  0  0  0
    0.8675    1.5027    0.0000 C   0  0  0  0  0  0  0  0  0  0  0  0
  1  2  1  0  0  0  0
  2  3  2  0  0  0  0
  2  4  1  0  0  0  0
  4 10  2  0  0  0  0
  4  5  1  0  0  0  0
  5  6  2  0  0  0  0
  6  7  1  0  0  0  0
  6  8  1  0  0  0  0
  8  9  2  0  0  0  0
  9 10  1  0  0  0  0
 10 11  1  0  0  0  0
 11 12  1  0  0  0  0
 12 13  1  0  0  0  0
 13 14  1  0  0  0  0
 13 15  1  0  0  0  0
 15 16  1  0  0  0  0
 16 21  1  0  0  0  0
 16 17  1  0  0  0  0
 17 18  1  0  0  0  0
 18 19  1  0  0  0  0
 19 20  1  0  0  0  0
 20 21  1  0  0  0  0
M  END
> <ID>
372323

$$$$
1591035
  -OEChem-05171416412D

 26 29  0     1  0  0  0  0  0999 V2000
    1.7321    3.0104    0.0000 O   0  0  0  0  0  0  0  0  0  0  0  0
    0.8660    3.5104    0.0000 C   0  0  3  0  0  0  0  0  0  0  0  0
   -0.0000    3.0104    0.0000 C   0  0  0  0  0  0  0  0  0  0  0  0
   -0.0000    2.0104    0.0000 N   0  0  0  0  0  0  0  0  0  0  0  0
   -0.8675    1.5027    0.0000 C   0  0  0  0  0  0  0  0  0  0  0  0
   -0.8675    0.4975    0.0000 C   0  0  0  0  0  0  0  0  0  0  0  0
    0.0000    0.0000    0.0000 C   0  0  0  0  0  0  0  0  0  0  0  0
    0.8675    0.4975    0.0000 C   0  0  0  0  0  0  0  0  0  0  0  0
    0.8675    1.5027    0.0000 C   0  0  0  0  0  0  0  0  0  0  0  0
    0.8660    4.5104    0.0000 C   0  0  3  0  0  0  0  0  0  0  0  0
    1.6807    5.1024    0.0000 O   0  0  0  0  0  0  0  0  0  0  0  0
    1.3696    6.0602    0.0000 C   0  0  0  0  0  0  0  0  0  0  0  0
    1.8777    6.9281    0.0000 C   0  0  0  0  0  0  0  0  0  0  0  0
    1.3697    7.7962    0.0000 C   0  0  0  0  0  0  0  0  0  0  0  0
    0.3639    7.7962    0.0000 C   0  0  0  0  0  0  0  0  0  0  0  0
   -0.1339    6.9283    0.0000 C   0  0  0  0  0  0  0  0  0  0  0  0
    0.3626    6.0602    0.0000 C   0  0  0  0  0  0  0  0  0  0  0  0
    0.0513    5.1024    0.0000 C   0  0  3  0  0  0  0  0  0  0  0  0
   -0.8998    4.7935    0.0000 C   0  0  0  0  0  0  0  0  0  0  0  0
   -1.1078    3.8154    0.0000 C   0  0  0  0  0  0  0  0  0  0  0  0
   -2.0589    3.5065    0.0000 C   0  0  0  0  0  0  0  0  0  0  0  0
   -2.2651    2.5227    0.0000 C   0  0  0  0  0  0  0  0  0  0  0  0
   -3.2162    2.2137    0.0000 C   0  0  0  0  0  0  0  0  0  0  0  0
   -3.9632    2.8786    0.0000 C   0  0  0  0  0  0  0  0  0  0  0  0
   -3.7570    3.8624    0.0000 C   0  0  0  0  0  0  0  0  0  0  0  0
   -2.8038    4.1813    0.0000 C   0  0  0  0  0  0  0  0  0  0  0  0
  1  2  1  0  0  0  0
  2  3  1  0  0  0  0
  3  4  1  0  0  0  0
  4  9  1  0  0  0  0
  4  5  1  0  0  0  0
  5  6  1  0  0  0  0
  6  7  1  0  0  0  0
  7  8  1  0  0  0  0
  8  9  1  0  0  0  0
  2 10  1  0  0  0  0
 10 18  1  0  0  0  0
 10 11  1  0  0  0  0
 11 12  1  0  0  0  0
 12 17  2  0  0  0  0
 12 13  1  0  0  0  0
 13 14  2  0  0  0  0
 14 15  1  0  0  0  0
 15 16  2  0  0  0  0
 16 17  1  0  0  0  0
 17 18  1  0  0  0  0
 18 19  1  0  0  0  0
 19 20  1  0  0  0  0
 20 21  1  0  0  0  0
 21 26  2  0  0  0  0
 21 22  1  0  0  0  0
 22 23  2  0  0  0  0
 23 24  1  0  0  0  0
 24 25  2  0  0  0  0
 25 26  1  0  0  0  0
M  END
> <ID>
1591035

$$$$
1591036
  -OEChem-05171416412D

 26 27  0     1  0  0  0  0  0999 V2000
    3.6735   -4.4926    0.0000 C   0  0  0  0  0  0  0  0  0  0  0  0
    3.0332   -3.7246    0.0000 C   0  0  0  0  0  0  0  0  0  0  0  0
    2.0478   -3.8951    0.0000 C   0  0  0  0  0  0  0  0  0  0  0  0
    3.3782   -2.7860    0.0000 C   0  0  1  0  0  0  0  0  0  0  0  0
    2.4396   -2.4409    0.0000 H   0  0  0  0  0  0  0  0  0  0  0  0
    4.3168   -3.1310    0.0000 C   0  0  0  0  0  0  0  0  0  0  0  0
    5.0849   -2.4906    0.0000 Cl  0  0  0  0  0  0  0  0  0  0  0  0
    3.7232   -1.8474    0.0000 N   0  0  3  0  0  0  0  0  0  0  0  0
    4.7086   -1.6768    0.0000 C   0  0  0  0  0  0  0  0  0  0  0  0
    2.6026   -0.5032    0.0000 C   0  0  2  0  0  0  0  0  0  0  0  0
    1.9580   -1.2678    0.0000 H   0  0  0  0  0  0  0  0  0  0  0  0
    1.7360   -0.0012    0.0000 C   0  0  3  0  0  0  0  0  0  0  0  0
    0.8680   -0.4978    0.0000 C   0  0  0  0  0  0  0  0  0  0  0  0
    0.0000    0.0000    0.0000 C   0  0  0  0  0  0  0  0  0  0  0  0
    0.0000    1.0057    0.0000 C   0  0  0  0  0  0  0  0  0  0  0  0
    0.8680    1.5138    0.0000 C   0  0  0  0  0  0  0  0  0  0  0  0
    1.7374    1.0057    0.0000 C   0  0  3  0  0  0  0  0  0  0  0  0
    2.6052    1.5109    0.0000 O   0  0  0  0  0  0  0  0  0  0  0  0
    3.4774    1.0034    0.0000 C   0  0  0  0  0  0  0  0  0  0  0  0
    3.8219    1.9422    0.0000 C   0  0  0  0  0  0  0  0  0  0  0  0
    5.2002    0.6961    0.0000 C   0  0  0  0  0  0  0  0  0  0  0  0
    3.4761   -0.0036    0.0000 C   0  0  1  0  0  0  0  0  0  0  0  0
    4.4613    0.1679    0.0000 H   0  0  0  0  0  0  0  0  0  0  0  0
    3.8152   -0.9444    0.0000 O   0  0  0  0  0  0  0  0  0  0  0  0
   -0.8653   -0.5013    0.0000 C   0  0  0  0  0  0  0  0  0  0  0  0
   -1.7306   -1.0025    0.0000 N   0  0  0  0  0  0  0  0  0  0  0  0
  1  2  1  0  0  0  0
  2  3  1  0  0  0  0
  2  4  1  0  0  0  0
  4  5  1  1  0  0  0
  4  6  1  0  0  0  0
  6  7  1  0  0  0  0
  4  8  1  0  0  0  0
  8  9  1  0  0  0  0
  8 10  1  0  0  0  0
 10 11  1  1  0  0  0
 10 22  1  0  0  0  0
 10 12  1  0  0  0  0
 12 17  1  0  0  0  0
 12 13  1  0  0  0  0
 13 14  2  0  0  0  0
 14 15  1  0  0  0  0
 15 16  2  0  0  0  0
 16 17  1  0  0  0  0
 17 18  1  0  0  0  0
 18 19  1  0  0  0  0
 19 20  1  0  0  0  0
 19 21  1  0  0  0  0
 19 22  1  0  0  0  0
 22 23  1  6  0  0  0
 22 24  1  0  0  0  0
 14 25  1  0  0  0  0
 25 26  3  0  0  0  0
M  END
> <ID>
1591036

$$$$
1591037
  -OEChem-05171416412D

 38 42  0     1  0  0  0  0  0999 V2000
   -0.8647    2.5126    0.0000 O   0  0  0  0  0  0  0  0  0  0  0  0
    0.0014    3.0126    0.0000 C   0  0  3  0  0  0  0  0  0  0  0  0
    0.0014    4.0126    0.0000 C   0  0  0  0  0  0  0  0  0  0  0  0
   -0.8647    4.5126    0.0000 O   0  0  0  0  0  0  0  0  0  0  0  0
   -0.8647    5.5126    0.0000 C   0  0  0  0  0  0  0  0  0  0  0  0
    0.0074    6.0126    0.0000 C   0  0  0  0  0  0  0  0  0  0  0  0
    0.0074    7.0127    0.0000 C   0  0  0  0  0  0  0  0  0  0  0  0
   -0.8557    7.5177    0.0000 C   0  0  0  0  0  0  0  0  0  0  0  0
   -1.7277    7.0177    0.0000 C   0  0  0  0  0  0  0  0  0  0  0  0
   -1.7366    6.0126    0.0000 C   0  0  0  0  0  0  0  0  0  0  0  0
   -2.5908    7.5228    0.0000 C   0  0  0  0  0  0  0  0  0  0  0  0
   -2.5849    8.5228    0.0000 O   0  0  0  0  0  0  0  0  0  0  0  0
   -3.4597    7.0279    0.0000 C   0  0  0  0  0  0  0  0  0  0  0  0
   -4.3228    7.5330    0.0000 C   0  0  0  0  0  0  0  0  0  0  0  0
   -5.1918    7.0381    0.0000 C   0  0  0  0  0  0  0  0  0  0  0  0
   -5.2012    6.0305    0.0000 C   0  0  0  0  0  0  0  0  0  0  0  0
   -6.0758    5.5340    0.0000 C   0  0  0  0  0  0  0  0  0  0  0  0
   -6.9409    6.0452    0.0000 C   0  0  0  0  0  0  0  0  0  0  0  0
   -6.9336    7.0452    0.0000 C   0  0  0  0  0  0  0  0  0  0  0  0
   -7.7949    7.5565    0.0000 C   0  0  0  0  0  0  0  0  0  0  0  0
   -7.7892    8.5570    0.0000 C   0  0  0  0  0  0  0  0  0  0  0  0
   -6.9140    9.0523    0.0000 C   0  0  0  0  0  0  0  0  0  0  0  0
   -6.0445    8.5471    0.0000 C   0  0  0  0  0  0  0  0  0  0  0  0
   -6.0590    7.5417    0.0000 C   0  0  0  0  0  0  0  0  0  0  0  0
    0.8674    2.5126    0.0000 C   0  0  0  0  0  0  0  0  0  0  0  0
    0.8674    1.5126    0.0000 N   0  0  0  0  0  0  0  0  0  0  0  0
    0.0000    1.0051    0.0000 C   0  0  0  0  0  0  0  0  0  0  0  0
    0.0000    0.0000    0.0000 C   0  0  0  0  0  0  0  0  0  0  0  0
    0.8674   -0.4976    0.0000 N   0  0  0  0  0  0  0  0  0  0  0  0
    1.7348    0.0000    0.0000 C   0  0  0  0  0  0  0  0  0  0  0  0
    1.7348    1.0051    0.0000 C   0  0  0  0  0  0  0  0  0  0  0  0
    0.8674   -1.4976    0.0000 C   0  0  0  0  0  0  0  0  0  0  0  0
    1.7394   -1.9976    0.0000 C   0  0  0  0  0  0  0  0  0  0  0  0
    1.7395   -2.9977    0.0000 C   0  0  0  0  0  0  0  0  0  0  0  0
    0.8763   -3.5027    0.0000 C   0  0  0  0  0  0  0  0  0  0  0  0
    0.8807   -4.5027    0.0000 F   0  0  0  0  0  0  0  0  0  0  0  0
    0.0043   -3.0027    0.0000 C   0  0  0  0  0  0  0  0  0  0  0  0
   -0.0046   -1.9976    0.0000 C   0  0  0  0  0  0  0  0  0  0  0  0
  1  2  1  0  0  0  0
  2  3  1  0  0  0  0
  3  4  1  0  0  0  0
  4  5  1  0  0  0  0
  5 10  2  0  0  0  0
  5  6  1  0  0  0  0
  6  7  2  0  0  0  0
  7  8  1  0  0  0  0
  8  9  2  0  0  0  0
  9 10  1  0  0  0  0
  9 11  1  0  0  0  0
 11 12  2  0  0  0  0
 11 13  1  0  0  0  0
 13 14  1  0  0  0  0
 14 15  1  0  0  0  0
 15 24  2  0  0  0  0
 15 16  1  0  0  0  0
 16 17  2  0  0  0  0
 17 18  1  0  0  0  0
 18 19  2  0  0  0  0
 19 24  1  0  0  0  0
 19 20  1  0  0  0  0
 20 21  2  0  0  0  0
 21 22  1  0  0  0  0
 22 23  2  0  0  0  0
 23 24  1  0  0  0  0
  2 25  1  0  0  0  0
 25 26  1  0  0  0  0
 26 31  1  0  0  0  0
 26 27  1  0  0  0  0
 27 28  1  0  0  0  0
 28 29  1  0  0  0  0
 29 30  1  0  0  0  0
 30 31  1  0  0  0  0
 29 32  1  0  0  0  0
 32 38  2  0  0  0  0
 32 33  1  0  0  0  0
 33 34  2  0  0  0  0
 34 35  1  0  0  0  0
 35 36  1  0  0  0  0
 35 37  2  0  0  0  0
 37 38  1  0  0  0  0
M  END
> <ID>
1591037

$$$$
1591038
  -OEChem-05171416412D

 38 42  0     1  0  0  0  0  0999 V2000
   -0.8699    2.5113    0.0000 C   0  0  0  0  0  0  0  0  0  0  0  0
   -0.0046    3.0126    0.0000 C   0  0  0  0  0  0  0  0  0  0  0  0
   -0.0047    4.0127    0.0000 C   0  0  0  0  0  0  0  0  0  0  0  0
    0.8585    4.5177    0.0000 C   0  0  0  0  0  0  0  0  0  0  0  0
    1.7305    4.0177    0.0000 C   0  0  0  0  0  0  0  0  0  0  0  0
    1.7394    3.0126    0.0000 C   0  0  0  0  0  0  0  0  0  0  0  0
    0.8674    2.5126    0.0000 C   0  0  0  0  0  0  0  0  0  0  0  0
    0.8674    1.5126    0.0000 N   0  0  0  0  0  0  0  0  0  0  0  0
    0.0000    1.0051    0.0000 C   0  0  0  0  0  0  0  0  0  0  0  0
    0.0000    0.0000    0.0000 C   0  0  0  0  0  0  0  0  0  0  0  0
    0.8674   -0.4976    0.0000 N   0  0  0  0  0  0  0  0  0  0  0  0
    0.8674   -1.4976    0.0000 C   0  0  0  0  0  0  0  0  0  0  0  0
    1.7334   -1.9976    0.0000 C   0  0  3  0  0  0  0  0  0  0  0  0
    2.5995   -1.4976    0.0000 O   0  0  0  0  0  0  0  0  0  0  0  0
    1.7334   -2.9976    0.0000 C   0  0  0  0  0  0  0  0  0  0  0  0
    2.5995   -3.4976    0.0000 O   0  0  0  0  0  0  0  0  0  0  0  0
    2.5995   -4.4976    0.0000 C   0  0  0  0  0  0  0  0  0  0  0  0
    1.7274   -4.9976    0.0000 C   0  0  0  0  0  0  0  0  0  0  0  0
    1.7274   -5.9977    0.0000 C   0  0  0  0  0  0  0  0  0  0  0  0
    2.5905   -6.5027    0.0000 C   0  0  0  0  0  0  0  0  0  0  0  0
    3.4625   -6.0027    0.0000 C   0  0  0  0  0  0  0  0  0  0  0  0
    3.4714   -4.9976    0.0000 C   0  0  0  0  0  0  0  0  0  0  0  0
    4.3256   -6.5078    0.0000 C   0  0  0  0  0  0  0  0  0  0  0  0
    4.3197   -7.5078    0.0000 O   0  0  0  0  0  0  0  0  0  0  0  0
    5.1945   -6.0129    0.0000 C   0  0  0  0  0  0  0  0  0  0  0  0
    6.0576   -6.5180    0.0000 C   0  0  0  0  0  0  0  0  0  0  0  0
    6.9266   -6.0231    0.0000 C   0  0  0  0  0  0  0  0  0  0  0  0
    6.9360   -5.0155    0.0000 C   0  0  0  0  0  0  0  0  0  0  0  0
    7.8106   -4.5190    0.0000 C   0  0  0  0  0  0  0  0  0  0  0  0
    8.6757   -5.0302    0.0000 C   0  0  0  0  0  0  0  0  0  0  0  0
    8.6684   -6.0302    0.0000 C   0  0  0  0  0  0  0  0  0  0  0  0
    9.5297   -6.5415    0.0000 C   0  0  0  0  0  0  0  0  0  0  0  0
    9.5240   -7.5420    0.0000 C   0  0  0  0  0  0  0  0  0  0  0  0
    8.6488   -8.0373    0.0000 C   0  0  0  0  0  0  0  0  0  0  0  0
    7.7793   -7.5321    0.0000 C   0  0  0  0  0  0  0  0  0  0  0  0
    7.7938   -6.5267    0.0000 C   0  0  0  0  0  0  0  0  0  0  0  0
    1.7348    0.0000    0.0000 C   0  0  0  0  0  0  0  0  0  0  0  0
    1.7348    1.0051    0.0000 C   0  0  0  0  0  0  0  0  0  0  0  0
  1  2  1  0  0  0  0
  2  7  2  0  0  0  0
  2  3  1  0  0  0  0
  3  4  2  0  0  0  0
  4  5  1  0  0  0  0
  5  6  2  0  0  0  0
  6  7  1  0  0  0  0
  7  8  1  0  0  0  0
  8 38  1  0  0  0  0
  8  9  1  0  0  0  0
  9 10  1  0  0  0  0
 10 11  1  0  0  0  0
 11 12  1  0  0  0  0
 12 13  1  0  0  0  0
 13 14  1  0  0  0  0
 13 15  1  0  0  0  0
 15 16  1  0  0  0  0
 16 17  1  0  0  0  0
 17 22  2  0  0  0  0
 17 18  1  0  0  0  0
 18 19  2  0  0  0  0
 19 20  1  0  0  0  0
 20 21  2  0  0  0  0
 21 22  1  0  0  0  0
 21 23  1  0  0  0  0
 23 24  2  0  0  0  0
 23 25  1  0  0  0  0
 25 26  1  0  0  0  0
 26 27  1  0  0  0  0
 27 36  2  0  0  0  0
 27 28  1  0  0  0  0
 28 29  2  0  0  0  0
 29 30  1  0  0  0  0
 30 31  2  0  0  0  0
 31 36  1  0  0  0  0
 31 32  1  0  0  0  0
 32 33  2  0  0  0  0
 33 34  1  0  0  0  0
 34 35  2  0  0  0  0
 35 36  1  0  0  0  0
 11 37  1  0  0  0  0
 37 38  1  0  0  0  0
M  END
> <ID>
1591038

$$$$
1591039
  -OEChem-05171416412D

 17 18  0     1  0  0  0  0  0999 V2000
    1.7325   -2.0008    0.0000 C   0  0  0  0  0  0  0  0  0  0  0  0
    2.5999   -1.5032    0.0000 N   0  0  0  0  0  0  0  0  0  0  0  0
    2.6026   -0.5032    0.0000 C   0  0  3  0  0  0  0  0  0  0  0  0
    3.4761   -0.0036    0.0000 C   0  0  3  0  0  0  0  0  0  0  0  0
    4.3408   -0.5059    0.0000 O   0  0  0  0  0  0  0  0  0  0  0  0
    3.4774    1.0034    0.0000 C   0  0  0  0  0  0  0  0  0  0  0  0
    3.8219    1.9422    0.0000 C   0  0  0  0  0  0  0  0  0  0  0  0
    4.4619    0.8278    0.0000 C   0  0  0  0  0  0  0  0  0  0  0  0
    2.6052    1.5109    0.0000 O   0  0  0  0  0  0  0  0  0  0  0  0
    1.7374    1.0057    0.0000 C   0  0  0  0  0  0  0  0  0  0  0  0
    0.8680    1.5138    0.0000 C   0  0  0  0  0  0  0  0  0  0  0  0
    0.0000    1.0057    0.0000 C   0  0  0  0  0  0  0  0  0  0  0  0
    0.0000    0.0000    0.0000 C   0  0  0  0  0  0  0  0  0  0  0  0
    0.8680   -0.4978    0.0000 C   0  0  0  0  0  0  0  0  0  0  0  0
    1.7360   -0.0012    0.0000 C   0  0  0  0  0  0  0  0  0  0  0  0
   -0.8653   -0.5013    0.0000 C   0  0  0  0  0  0  0  0  0  0  0  0
   -1.7306   -1.0025    0.0000 N   0  0  0  0  0  0  0  0  0  0  0  0
  1  2  1  0  0  0  0
  2  3  1  0  0  0  0
  3 15  1  0  0  0  0
  3  4  1  0  0  0  0
  4  5  1  0  0  0  0
  4  6  1  0  0  0  0
  6  7  1  0  0  0  0
  6  8  1  0  0  0  0
  6  9  1  0  0  0  0
  9 10  1  0  0  0  0
 10 15  2  0  0  0  0
 10 11  1  0  0  0  0
 11 12  2  0  0  0  0
 12 13  1  0  0  0  0
 13 14  2  0  0  0  0
 14 15  1  0  0  0  0
 13 16  1  0  0  0  0
 16 17  3  0  0  0  0
M  END
> <ID>
1591039

$$$$
1591040
  -OEChem-05171416412D

 23 25  0     1  0  0  0  0  0999 V2000
    3.8219    1.9422    0.0000 C   0  0  0  0  0  0  0  0  0  0  0  0
    3.4774    1.0034    0.0000 C   0  0  0  0  0  0  0  0  0  0  0  0
    4.4619    0.8278    0.0000 C   0  0  0  0  0  0  0  0  0  0  0  0
    2.6052    1.5109    0.0000 O   0  0  0  0  0  0  0  0  0  0  0  0
    1.7374    1.0057    0.0000 C   0  0  0  0  0  0  0  0  0  0  0  0
    0.8680    1.5138    0.0000 C   0  0  0  0  0  0  0  0  0  0  0  0
    0.0000    1.0057    0.0000 C   0  0  0  0  0  0  0  0  0  0  0  0
    0.0000    0.0000    0.0000 C   0  0  0  0  0  0  0  0  0  0  0  0
    0.8680   -0.4978    0.0000 C   0  0  0  0  0  0  0  0  0  0  0  0
    1.7360   -0.0012    0.0000 C   0  0  0  0  0  0  0  0  0  0  0  0
    2.6026   -0.5032    0.0000 C   0  0  3  0  0  0  0  0  0  0  0  0
    2.5999   -1.5032    0.0000 N   0  0  0  0  0  0  0  0  0  0  0  0
    3.4645   -2.0056    0.0000 C   0  0  0  0  0  0  0  0  0  0  0  0
    3.4617   -3.0056    0.0000 C   0  0  0  0  0  0  0  0  0  0  0  0
    4.3324   -3.5080    0.0000 C   0  0  0  0  0  0  0  0  0  0  0  0
    4.3297   -4.5080    0.0000 C   0  0  0  0  0  0  0  0  0  0  0  0
    3.4652   -5.0107    0.0000 C   0  0  0  0  0  0  0  0  0  0  0  0
    2.5945   -4.5083    0.0000 C   0  0  0  0  0  0  0  0  0  0  0  0
    2.5884   -3.5032    0.0000 C   0  0  0  0  0  0  0  0  0  0  0  0
    3.4761   -0.0036    0.0000 C   0  0  3  0  0  0  0  0  0  0  0  0
    4.3408   -0.5059    0.0000 O   0  0  0  0  0  0  0  0  0  0  0  0
   -0.8653   -0.5013    0.0000 C   0  0  0  0  0  0  0  0  0  0  0  0
   -1.7306   -1.0025    0.0000 N   0  0  0  0  0  0  0  0  0  0  0  0
  1  2  1  0  0  0  0
  2 20  1  0  0  0  0
  2  3  1  0  0  0  0
  2  4  1  0  0  0  0
  4  5  1  0  0  0  0
  5 10  2  0  0  0  0
  5  6  1  0  0  0  0
  6  7  2  0  0  0  0
  7  8  1  0  0  0  0
  8  9  2  0  0  0  0
  9 10  1  0  0  0  0
 10 11  1  0  0  0  0
 11 12  1  0  0  0  0
 12 13  1  0  0  0  0
 13 14  1  0  0  0  0
 14 19  2  0  0  0  0
 14 15  1  0  0  0  0
 15 16  2  0  0  0  0
 16 17  1  0  0  0  0
 17 18  2  0  0  0  0
 18 19  1  0  0  0  0
 11 20  1  0  0  0  0
 20 21  1  0  0  0  0
  8 22  1  0  0  0  0
 22 23  3  0  0  0  0
M  END
> <ID>
1591040

$$$$
1591041
  -OEChem-05171416412D

 19 20  0     1  0  0  0  0  0999 V2000
    3.3782   -2.7860    0.0000 C   0  0  0  0  0  0  0  0  0  0  0  0
    3.7232   -1.8474    0.0000 N   0  0  0  0  0  0  0  0  0  0  0  0
    2.6026   -0.5032    0.0000 C   0  0  1  0  0  0  0  0  0  0  0  0
    1.9580   -1.2678    0.0000 H   0  0  0  0  0  0  0  0  0  0  0  0
    3.4761   -0.0036    0.0000 C   0  0  2  0  0  0  0  0  0  0  0  0
    5.2002    0.2965    0.0000 H   0  0  0  0  0  0  0  0  0  0  0  0
    3.8152   -0.9444    0.0000 O   0  0  0  0  0  0  0  0  0  0  0  0
    3.4774    1.0034    0.0000 C   0  0  0  0  0  0  0  0  0  0  0  0
    3.8219    1.9422    0.0000 C   0  0  0  0  0  0  0  0  0  0  0  0
    4.4619    0.8278    0.0000 C   0  0  0  0  0  0  0  0  0  0  0  0
    2.6052    1.5109    0.0000 O   0  0  0  0  0  0  0  0  0  0  0  0
    1.7374    1.0057    0.0000 C   0  0  0  0  0  0  0  0  0  0  0  0
    0.8680    1.5138    0.0000 C   0  0  0  0  0  0  0  0  0  0  0  0
    0.0000    1.0057    0.0000 C   0  0  0  0  0  0  0  0  0  0  0  0
    0.0000    0.0000    0.0000 C   0  0  0  0  0  0  0  0  0  0  0  0
    0.8680   -0.4978    0.0000 C   0  0  0  0  0  0  0  0  0  0  0  0
    1.7360   -0.0012    0.0000 C   0  0  0  0  0  0  0  0  0  0  0  0
   -0.8653   -0.5013    0.0000 C   0  0  0  0  0  0  0  0  0  0  0  0
   -1.7306   -1.0025    0.0000 N   0  0  0  0  0  0  0  0  0  0  0  0
  1  2  1  0  0  0  0
  2  3  1  0  0  0  0
  3  4  1  1  0  0  0
  3 17  1  0  0  0  0
  3  5  1  0  0  0  0
  5  6  1  6  0  0  0
  5  7  1  0  0  0  0
  5  8  1  0  0  0  0
  8  9  1  0  0  0  0
  8 10  1  0  0  0  0
  8 11  1  0  0  0  0
 11 12  1  0  0  0  0
 12 17  2  0  0  0  0
 12 13  1  0  0  0  0
 13 14  2  0  0  0  0
 14 15  1  0  0  0  0
 15 16  2  0  0  0  0
 16 17  1  0  0  0  0
 15 18  1  0  0  0  0
 18 19  3  0  0  0  0
M  END
> <ID>
1591041

$$$$
1591042
  -OEChem-05171416412D

 25 27  0     1  0  0  0  0  0999 V2000
    3.8219    1.9422    0.0000 C   0  0  0  0  0  0  0  0  0  0  0  0
    3.4774    1.0034    0.0000 C   0  0  0  0  0  0  0  0  0  0  0  0
    5.2002    0.6961    0.0000 C   0  0  0  0  0  0  0  0  0  0  0  0
    2.6052    1.5109    0.0000 O   0  0  0  0  0  0  0  0  0  0  0  0
    1.7374    1.0057    0.0000 C   0  0  0  0  0  0  0  0  0  0  0  0
    0.8680    1.5138    0.0000 C   0  0  0  0  0  0  0  0  0  0  0  0
    0.0000    1.0057    0.0000 C   0  0  0  0  0  0  0  0  0  0  0  0
    0.0000    0.0000    0.0000 C   0  0  0  0  0  0  0  0  0  0  0  0
    0.8680   -0.4978    0.0000 C   0  0  0  0  0  0  0  0  0  0  0  0
    1.7360   -0.0012    0.0000 C   0  0  0  0  0  0  0  0  0  0  0  0
    2.6026   -0.5032    0.0000 C   0  0  1  0  0  0  0  0  0  0  0  0
    3.7232   -1.8474    0.0000 H   0  0  0  0  0  0  0  0  0  0  0  0
    1.9580   -1.2678    0.0000 N   0  0  0  0  0  0  0  0  0  0  0  0
    2.2979   -2.2082    0.0000 C   0  0  0  0  0  0  0  0  0  0  0  0
    1.6533   -2.9728    0.0000 C   0  0  0  0  0  0  0  0  0  0  0  0
    1.9977   -3.9172    0.0000 C   0  0  0  0  0  0  0  0  0  0  0  0
    1.3532   -4.6818    0.0000 C   0  0  0  0  0  0  0  0  0  0  0  0
    0.3677   -4.5116    0.0000 C   0  0  0  0  0  0  0  0  0  0  0  0
    0.0233   -3.5672    0.0000 C   0  0  0  0  0  0  0  0  0  0  0  0
    0.6644   -2.7930    0.0000 C   0  0  0  0  0  0  0  0  0  0  0  0
    3.4761   -0.0036    0.0000 C   0  0  2  0  0  0  0  0  0  0  0  0
    4.4613    0.1679    0.0000 H   0  0  0  0  0  0  0  0  0  0  0  0
    3.8152   -0.9444    0.0000 O   0  0  0  0  0  0  0  0  0  0  0  0
   -0.8653   -0.5013    0.0000 C   0  0  0  0  0  0  0  0  0  0  0  0
   -1.7306   -1.0025    0.0000 N   0  0  0  0  0  0  0  0  0  0  0  0
  1  2  1  0  0  0  0
  2 21  1  0  0  0  0
  2  3  1  0  0  0  0
  2  4  1  0  0  0  0
  4  5  1  0  0  0  0
  5 10  2  0  0  0  0
  5  6  1  0  0  0  0
  6  7  2  0  0  0  0
  7  8  1  0  0  0  0
  8  9  2  0  0  0  0
  9 10  1  0  0  0  0
 10 11  1  0  0  0  0
 11 12  1  1  0  0  0
 11 13  1  0  0  0  0
 13 14  1  0  0  0  0
 14 15  1  0  0  0  0
 15 20  2  0  0  0  0
 15 16  1  0  0  0  0
 16 17  2  0  0  0  0
 17 18  1  0  0  0  0
 18 19  2  0  0  0  0
 19 20  1  0  0  0  0
 11 21  1  0  0  0  0
 21 22  1  6  0  0  0
 21 23  1  0  0  0  0
  8 24  1  0  0  0  0
 24 25  3  0  0  0  0
M  END
> <ID>
1591042

$$$$
89331
  -OEChem-05171416412D

 25 27  0     1  0  0  0  0  0999 V2000
    3.8219    1.9422    0.0000 C   0  0  0  0  0  0  0  0  0  0  0  0
    3.4774    1.0034    0.0000 C   0  0  0  0  0  0  0  0  0  0  0  0
    5.2002    0.6961    0.0000 C   0  0  0  0  0  0  0  0  0  0  0  0
    2.6052    1.5109    0.0000 O   0  0  0  0  0  0  0  0  0  0  0  0
    1.7374    1.0057    0.0000 C   0  0  0  0  0  0  0  0  0  0  0  0
    0.8680    1.5138    0.0000 C   0  0  0  0  0  0  0  0  0  0  0  0
    0.0000    1.0057    0.0000 C   0  0  0  0  0  0  0  0  0  0  0  0
    0.0000    0.0000    0.0000 C   0  0  0  0  0  0  0  0  0  0  0  0
    0.8680   -0.4978    0.0000 C   0  0  0  0  0  0  0  0  0  0  0  0
    1.7360   -0.0012    0.0000 C   0  0  0  0  0  0  0  0  0  0  0  0
    2.6026   -0.5032    0.0000 C   0  0  2  0  0  0  0  0  0  0  0  0
    3.7232   -1.8474    0.0000 H   0  0  0  0  0  0  0  0  0  0  0  0
    1.9580   -1.2678    0.0000 N   0  0  0  0  0  0  0  0  0  0  0  0
    2.2979   -2.2082    0.0000 C   0  0  0  0  0  0  0  0  0  0  0  0
    1.6533   -2.9728    0.0000 C   0  0  0  0  0  0  0  0  0  0  0  0
    1.9977   -3.9172    0.0000 C   0  0  0  0  0  0  0  0  0  0  0  0
    1.3532   -4.6818    0.0000 C   0  0  0  0  0  0  0  0  0  0  0  0
    0.3677   -4.5116    0.0000 C   0  0  0  0  0  0  0  0  0  0  0  0
    0.0233   -3.5672    0.0000 C   0  0  0  0  0  0  0  0  0  0  0  0
    0.6644   -2.7930    0.0000 C   0  0  0  0  0  0  0  0  0  0  0  0
    3.4761   -0.0036    0.0000 C   0  0  1  0  0  0  0  0  0  0  0  0
    4.4613    0.1679    0.0000 H   0  0  0  0  0  0  0  0  0  0  0  0
    3.8152   -0.9444    0.0000 O   0  0  0  0  0  0  0  0  0  0  0  0
   -0.8653   -0.5013    0.0000 C   0  0  0  0  0  0  0  0  0  0  0  0
   -1.7306   -1.0025    0.0000 N   0  0  0  0  0  0  0  0  0  0  0  0
  1  2  1  0  0  0  0
  2 21  1  0  0  0  0
  2  3  1  0  0  0  0
  2  4  1  0  0  0  0
  4  5  1  0  0  0  0
  5 10  2  0  0  0  0
  5  6  1  0  0  0  0
  6  7  2  0  0  0  0
  7  8  1  0  0  0  0
  8  9  2  0  0  0  0
  9 10  1  0  0  0  0
 10 11  1  0  0  0  0
 11 12  1  6  0  0  0
 11 13  1  0  0  0  0
 13 14  1  0  0  0  0
 14 15  1  0  0  0  0
 15 20  2  0  0  0  0
 15 16  1  0  0  0  0
 16 17  2  0  0  0  0
 17 18  1  0  0  0  0
 18 19  2  0  0  0  0
 19 20  1  0  0  0  0
 11 21  1  0  0  0  0
 21 22  1  1  0  0  0
 21 23  1  0  0  0  0
  8 24  1  0  0  0  0
 24 25  3  0  0  0  0
M  END
> <ID>
89331

$$$$
89345
  -OEChem-05171416412D

 19 20  0     1  0  0  0  0  0999 V2000
    3.3782   -2.7860    0.0000 C   0  0  0  0  0  0  0  0  0  0  0  0
    3.7232   -1.8474    0.0000 N   0  0  0  0  0  0  0  0  0  0  0  0
    2.6026   -0.5032    0.0000 C   0  0  2  0  0  0  0  0  0  0  0  0
    1.9580   -1.2678    0.0000 H   0  0  0  0  0  0  0  0  0  0  0  0
    3.4761   -0.0036    0.0000 C   0  0  1  0  0  0  0  0  0  0  0  0
    5.2002    0.2965    0.0000 H   0  0  0  0  0  0  0  0  0  0  0  0
    3.8152   -0.9444    0.0000 O   0  0  0  0  0  0  0  0  0  0  0  0
    3.4774    1.0034    0.0000 C   0  0  0  0  0  0  0  0  0  0  0  0
    3.8219    1.9422    0.0000 C   0  0  0  0  0  0  0  0  0  0  0  0
    4.4619    0.8278    0.0000 C   0  0  0  0  0  0  0  0  0  0  0  0
    2.6052    1.5109    0.0000 O   0  0  0  0  0  0  0  0  0  0  0  0
    1.7374    1.0057    0.0000 C   0  0  0  0  0  0  0  0  0  0  0  0
    0.8680    1.5138    0.0000 C   0  0  0  0  0  0  0  0  0  0  0  0
    0.0000    1.0057    0.0000 C   0  0  0  0  0  0  0  0  0  0  0  0
    0.0000    0.0000    0.0000 C   0  0  0  0  0  0  0  0  0  0  0  0
    0.8680   -0.4978    0.0000 C   0  0  0  0  0  0  0  0  0  0  0  0
    1.7360   -0.0012    0.0000 C   0  0  0  0  0  0  0  0  0  0  0  0
   -0.8653   -0.5013    0.0000 C   0  0  0  0  0  0  0  0  0  0  0  0
   -1.7306   -1.0025    0.0000 N   0  0  0  0  0  0  0  0  0  0  0  0
  1  2  1  0  0  0  0
  2  3  1  0  0  0  0
  3  4  1  6  0  0  0
  3 17  1  0  0  0  0
  3  5  1  0  0  0  0
  5  6  1  1  0  0  0
  5  7  1  0  0  0  0
  5  8  1  0  0  0  0
  8  9  1  0  0  0  0
  8 10  1  0  0  0  0
  8 11  1  0  0  0  0
 11 12  1  0  0  0  0
 12 17  2  0  0  0  0
 12 13  1  0  0  0  0
 13 14  2  0  0  0  0
 14 15  1  0  0  0  0
 15 16  2  0  0  0  0
 16 17  1  0  0  0  0
 15 18  1  0  0  0  0
 18 19  3  0  0  0  0
M  END
> <ID>
89345

$$$$
1591043
  -OEChem-05171416412D

 28 29  0     1  0  0  0  0  0999 V2000
    5.9892   -3.2130    0.0000 C   0  0  0  0  0  0  0  0  0  0  0  0
    5.0039   -3.3835    0.0000 C   0  0  0  0  0  0  0  0  0  0  0  0
    4.6589   -4.3221    0.0000 C   0  0  0  0  0  0  0  0  0  0  0  0
    4.3635   -2.6154    0.0000 C   0  0  1  0  0  0  0  0  0  0  0  0
    5.1316   -1.9751    0.0000 H   0  0  0  0  0  0  0  0  0  0  0  0
    3.7232   -1.8474    0.0000 N   0  0  0  0  0  0  0  0  0  0  0  0
    2.6026   -0.5032    0.0000 C   0  0  2  0  0  0  0  0  0  0  0  0
    1.9580   -1.2678    0.0000 H   0  0  0  0  0  0  0  0  0  0  0  0
    3.4761   -0.0036    0.0000 C   0  0  1  0  0  0  0  0  0  0  0  0
    5.2002    0.2965    0.0000 H   0  0  0  0  0  0  0  0  0  0  0  0
    3.8152   -0.9444    0.0000 O   0  0  0  0  0  0  0  0  0  0  0  0
    3.4774    1.0034    0.0000 C   0  0  0  0  0  0  0  0  0  0  0  0
    3.8219    1.9422    0.0000 C   0  0  0  0  0  0  0  0  0  0  0  0
    4.4619    0.8278    0.0000 C   0  0  0  0  0  0  0  0  0  0  0  0
    2.6052    1.5109    0.0000 O   0  0  0  0  0  0  0  0  0  0  0  0
    1.7374    1.0057    0.0000 C   0  0  0  0  0  0  0  0  0  0  0  0
    0.8680    1.5138    0.0000 C   0  0  0  0  0  0  0  0  0  0  0  0
    0.0000    1.0057    0.0000 C   0  0  0  0  0  0  0  0  0  0  0  0
    0.0000    0.0000    0.0000 C   0  0  0  0  0  0  0  0  0  0  0  0
    0.8680   -0.4978    0.0000 C   0  0  0  0  0  0  0  0  0  0  0  0
    1.7360   -0.0012    0.0000 C   0  0  0  0  0  0  0  0  0  0  0  0
    3.5955   -3.2558    0.0000 C   0  0  0  0  0  0  0  0  0  0  0  0
    2.6569   -2.9108    0.0000 O   0  0  0  0  0  0  0  0  0  0  0  0
    3.7660   -4.2411    0.0000 O   0  0  0  0  0  0  0  0  0  0  0  0
    2.9979   -4.8815    0.0000 C   0  0  0  0  0  0  0  0  0  0  0  0
    3.6382   -5.6496    0.0000 C   0  0  0  0  0  0  0  0  0  0  0  0
    2.3575   -4.1134    0.0000 C   0  0  0  0  0  0  0  0  0  0  0  0
    2.2298   -5.5218    0.0000 C   0  0  0  0  0  0  0  0  0  0  0  0
  1  2  1  0  0  0  0
  2  3  1  0  0  0  0
  2  4  1  0  0  0  0
  4  5  1  1  0  0  0
  4  6  1  0  0  0  0
  6  7  1  0  0  0  0
  7  8  1  6  0  0  0
  7 21  1  0  0  0  0
  7  9  1  0  0  0  0
  9 10  1  1  0  0  0
  9 11  1  0  0  0  0
  9 12  1  0  0  0  0
 12 13  1  0  0  0  0
 12 14  1  0  0  0  0
 12 15  1  0  0  0  0
 15 16  1  0  0  0  0
 16 21  2  0  0  0  0
 16 17  1  0  0  0  0
 17 18  2  0  0  0  0
 18 19  1  0  0  0  0
 19 20  2  0  0  0  0
 20 21  1  0  0  0  0
  4 22  1  0  0  0  0
 22 23  2  0  0  0  0
 22 24  1  0  0  0  0
 24 25  1  0  0  0  0
 25 26  1  0  0  0  0
 25 27  1  0  0  0  0
 25 28  1  0  0  0  0
M  END
> <ID>
1591043

$$$$
1591044
  -OEChem-05171416412D

 30 31  0     1  0  0  0  0  0999 V2000
    5.9892   -3.2130    0.0000 C   0  0  0  0  0  0  0  0  0  0  0  0
    5.0039   -3.3835    0.0000 C   0  0  0  0  0  0  0  0  0  0  0  0
    4.6589   -4.3221    0.0000 C   0  0  0  0  0  0  0  0  0  0  0  0
    4.3635   -2.6154    0.0000 C   0  0  1  0  0  0  0  0  0  0  0  0
    5.1316   -1.9751    0.0000 H   0  0  0  0  0  0  0  0  0  0  0  0
    3.7232   -1.8474    0.0000 N   0  0  0  0  0  0  0  0  0  0  0  0
    2.6026   -0.5032    0.0000 C   0  0  1  0  0  0  0  0  0  0  0  0
    1.9580   -1.2678    0.0000 H   0  0  0  0  0  0  0  0  0  0  0  0
    3.4761   -0.0036    0.0000 C   0  0  2  0  0  0  0  0  0  0  0  0
    5.2002    0.2965    0.0000 H   0  0  0  0  0  0  0  0  0  0  0  0
    3.8152   -0.9444    0.0000 O   0  0  0  0  0  0  0  0  0  0  0  0
    3.4774    1.0034    0.0000 C   0  0  0  0  0  0  0  0  0  0  0  0
    3.8219    1.9422    0.0000 C   0  0  0  0  0  0  0  0  0  0  0  0
    4.4619    0.8278    0.0000 C   0  0  0  0  0  0  0  0  0  0  0  0
    2.6052    1.5109    0.0000 O   0  0  0  0  0  0  0  0  0  0  0  0
    1.7374    1.0057    0.0000 C   0  0  0  0  0  0  0  0  0  0  0  0
    0.8680    1.5138    0.0000 C   0  0  0  0  0  0  0  0  0  0  0  0
    0.0000    1.0057    0.0000 C   0  0  0  0  0  0  0  0  0  0  0  0
    0.0000    0.0000    0.0000 C   0  0  0  0  0  0  0  0  0  0  0  0
    0.8680   -0.4978    0.0000 C   0  0  0  0  0  0  0  0  0  0  0  0
    1.7360   -0.0012    0.0000 C   0  0  0  0  0  0  0  0  0  0  0  0
   -0.8653   -0.5013    0.0000 C   0  0  0  0  0  0  0  0  0  0  0  0
   -1.7306   -1.0025    0.0000 N   0  0  0  0  0  0  0  0  0  0  0  0
    3.5955   -3.2558    0.0000 C   0  0  0  0  0  0  0  0  0  0  0  0
    2.6569   -2.9108    0.0000 O   0  0  0  0  0  0  0  0  0  0  0  0
    3.7660   -4.2411    0.0000 O   0  0  0  0  0  0  0  0  0  0  0  0
    2.9979   -4.8815    0.0000 C   0  0  0  0  0  0  0  0  0  0  0  0
    3.6382   -5.6496    0.0000 C   0  0  0  0  0  0  0  0  0  0  0  0
    2.3575   -4.1134    0.0000 C   0  0  0  0  0  0  0  0  0  0  0  0
    2.2298   -5.5218    0.0000 C   0  0  0  0  0  0  0  0  0  0  0  0
  1  2  1  0  0  0  0
  2  3  1  0  0  0  0
  2  4  1  0  0  0  0
  4  5  1  1  0  0  0
  4  6  1  0  0  0  0
  6  7  1  0  0  0  0
  7  8  1  1  0  0  0
  7 21  1  0  0  0  0
  7  9  1  0  0  0  0
  9 10  1  6  0  0  0
  9 11  1  0  0  0  0
  9 12  1  0  0  0  0
 12 13  1  0  0  0  0
 12 14  1  0  0  0  0
 12 15  1  0  0  0  0
 15 16  1  0  0  0  0
 16 21  2  0  0  0  0
 16 17  1  0  0  0  0
 17 18  2  0  0  0  0
 18 19  1  0  0  0  0
 19 20  2  0  0  0  0
 20 21  1  0  0  0  0
 19 22  1  0  0  0  0
 22 23  3  0  0  0  0
  4 24  1  0  0  0  0
 24 25  2  0  0  0  0
 24 26  1  0  0  0  0
 26 27  1  0  0  0  0
 27 28  1  0  0  0  0
 27 29  1  0  0  0  0
 27 30  1  0  0  0  0
M  END
> <ID>
1591044

$$$$
1591045
  -OEChem-05171416412D

 31 32  0     1  0  0  0  0  0999 V2000
    2.0478   -3.8951    0.0000 C   0  0  0  0  0  0  0  0  0  0  0  0
    3.0332   -3.7246    0.0000 C   0  0  0  0  0  0  0  0  0  0  0  0
    3.6735   -4.4926    0.0000 C   0  0  0  0  0  0  0  0  0  0  0  0
    3.3782   -2.7860    0.0000 C   0  0  2  0  0  0  0  0  0  0  0  0
    2.4396   -2.4409    0.0000 H   0  0  0  0  0  0  0  0  0  0  0  0
    3.7232   -1.8474    0.0000 N   0  0  3  0  0  0  0  0  0  0  0  0
    4.7086   -1.6768    0.0000 C   0  0  0  0  0  0  0  0  0  0  0  0
    2.6026   -0.5032    0.0000 C   0  0  1  0  0  0  0  0  0  0  0  0
    1.9580   -1.2678    0.0000 H   0  0  0  0  0  0  0  0  0  0  0  0
    3.4761   -0.0036    0.0000 C   0  0  2  0  0  0  0  0  0  0  0  0
    5.2002    0.2965    0.0000 H   0  0  0  0  0  0  0  0  0  0  0  0
    3.8152   -0.9444    0.0000 O   0  0  0  0  0  0  0  0  0  0  0  0
    3.4774    1.0034    0.0000 C   0  0  0  0  0  0  0  0  0  0  0  0
    3.8219    1.9422    0.0000 C   0  0  0  0  0  0  0  0  0  0  0  0
    4.4619    0.8278    0.0000 C   0  0  0  0  0  0  0  0  0  0  0  0
    2.6052    1.5109    0.0000 O   0  0  0  0  0  0  0  0  0  0  0  0
    1.7374    1.0057    0.0000 C   0  0  0  0  0  0  0  0  0  0  0  0
    0.8680    1.5138    0.0000 C   0  0  0  0  0  0  0  0  0  0  0  0
    0.0000    1.0057    0.0000 C   0  0  0  0  0  0  0  0  0  0  0  0
    0.0000    0.0000    0.0000 C   0  0  0  0  0  0  0  0  0  0  0  0
    0.8680   -0.4978    0.0000 C   0  0  0  0  0  0  0  0  0  0  0  0
    1.7360   -0.0012    0.0000 C   0  0  0  0  0  0  0  0  0  0  0  0
   -0.8653   -0.5013    0.0000 C   0  0  0  0  0  0  0  0  0  0  0  0
   -1.7306   -1.0025    0.0000 N   0  0  0  0  0  0  0  0  0  0  0  0
    4.3168   -3.1310    0.0000 C   0  0  0  0  0  0  0  0  0  0  0  0
    5.0849   -2.4906    0.0000 O   0  0  0  0  0  0  0  0  0  0  0  0
    4.4873   -4.1163    0.0000 O   0  0  0  0  0  0  0  0  0  0  0  0
    5.4259   -4.4613    0.0000 C   0  0  0  0  0  0  0  0  0  0  0  0
    5.0809   -5.3999    0.0000 C   0  0  0  0  0  0  0  0  0  0  0  0
    5.7709   -3.5227    0.0000 C   0  0  0  0  0  0  0  0  0  0  0  0
    6.3645   -4.8063    0.0000 C   0  0  0  0  0  0  0  0  0  0  0  0
  1  2  1  0  0  0  0
  2  3  1  0  0  0  0
  2  4  1  0  0  0  0
  4  5  1  1  0  0  0
  4  6  1  0  0  0  0
  6  7  1  0  0  0  0
  6  8  1  0  0  0  0
  8  9  1  1  0  0  0
  8 22  1  0  0  0  0
  8 10  1  0  0  0  0
 10 11  1  6  0  0  0
 10 12  1  0  0  0  0
 10 13  1  0  0  0  0
 13 14  1  0  0  0  0
 13 15  1  0  0  0  0
 13 16  1  0  0  0  0
 16 17  1  0  0  0  0
 17 22  2  0  0  0  0
 17 18  1  0  0  0  0
 18 19  2  0  0  0  0
 19 20  1  0  0  0  0
 20 21  2  0  0  0  0
 21 22  1  0  0  0  0
 20 23  1  0  0  0  0
 23 24  3  0  0  0  0
  4 25  1  0  0  0  0
 25 26  2  0  0  0  0
 25 27  1  0  0  0  0
 27 28  1  0  0  0  0
 28 29  1  0  0  0  0
 28 30  1  0  0  0  0
 28 31  1  0  0  0  0
M  END
> <ID>
1591045

$$$$
1591046
  -OEChem-05171416412D

 31 32  0     1  0  0  0  0  0999 V2000
    2.0478   -3.8951    0.0000 C   0  0  0  0  0  0  0  0  0  0  0  0
    3.0332   -3.7246    0.0000 C   0  0  0  0  0  0  0  0  0  0  0  0
    3.6735   -4.4926    0.0000 C   0  0  0  0  0  0  0  0  0  0  0  0
    3.3782   -2.7860    0.0000 C   0  0  2  0  0  0  0  0  0  0  0  0
    2.4396   -2.4409    0.0000 H   0  0  0  0  0  0  0  0  0  0  0  0
    3.7232   -1.8474    0.0000 N   0  0  3  0  0  0  0  0  0  0  0  0
    4.7086   -1.6768    0.0000 C   0  0  0  0  0  0  0  0  0  0  0  0
    2.6026   -0.5032    0.0000 C   0  0  2  0  0  0  0  0  0  0  0  0
    1.9580   -1.2678    0.0000 H   0  0  0  0  0  0  0  0  0  0  0  0
    3.4761   -0.0036    0.0000 C   0  0  1  0  0  0  0  0  0  0  0  0
    5.2002    0.2965    0.0000 H   0  0  0  0  0  0  0  0  0  0  0  0
    3.8152   -0.9444    0.0000 O   0  0  0  0  0  0  0  0  0  0  0  0
    3.4774    1.0034    0.0000 C   0  0  0  0  0  0  0  0  0  0  0  0
    3.8219    1.9422    0.0000 C   0  0  0  0  0  0  0  0  0  0  0  0
    4.4619    0.8278    0.0000 C   0  0  0  0  0  0  0  0  0  0  0  0
    2.6052    1.5109    0.0000 O   0  0  0  0  0  0  0  0  0  0  0  0
    1.7374    1.0057    0.0000 C   0  0  0  0  0  0  0  0  0  0  0  0
    0.8680    1.5138    0.0000 C   0  0  0  0  0  0  0  0  0  0  0  0
    0.0000    1.0057    0.0000 C   0  0  0  0  0  0  0  0  0  0  0  0
    0.0000    0.0000    0.0000 C   0  0  0  0  0  0  0  0  0  0  0  0
    0.8680   -0.4978    0.0000 C   0  0  0  0  0  0  0  0  0  0  0  0
    1.7360   -0.0012    0.0000 C   0  0  0  0  0  0  0  0  0  0  0  0
   -0.8653   -0.5013    0.0000 C   0  0  0  0  0  0  0  0  0  0  0  0
   -1.7306   -1.0025    0.0000 N   0  0  0  0  0  0  0  0  0  0  0  0
    4.3168   -3.1310    0.0000 C   0  0  0  0  0  0  0  0  0  0  0  0
    5.0849   -2.4906    0.0000 O   0  0  0  0  0  0  0  0  0  0  0  0
    4.4873   -4.1163    0.0000 O   0  0  0  0  0  0  0  0  0  0  0  0
    5.4259   -4.4613    0.0000 C   0  0  0  0  0  0  0  0  0  0  0  0
    5.0809   -5.3999    0.0000 C   0  0  0  0  0  0  0  0  0  0  0  0
    5.7709   -3.5227    0.0000 C   0  0  0  0  0  0  0  0  0  0  0  0
    6.3645   -4.8063    0.0000 C   0  0  0  0  0  0  0  0  0  0  0  0
  1  2  1  0  0  0  0
  2  3  1  0  0  0  0
  2  4  1  0  0  0  0
  4  5  1  1  0  0  0
  4  6  1  0  0  0  0
  6  7  1  0  0  0  0
  6  8  1  0  0  0  0
  8  9  1  6  0  0  0
  8 22  1  0  0  0  0
  8 10  1  0  0  0  0
 10 11  1  1  0  0  0
 10 12  1  0  0  0  0
 10 13  1  0  0  0  0
 13 14  1  0  0  0  0
 13 15  1  0  0  0  0
 13 16  1  0  0  0  0
 16 17  1  0  0  0  0
 17 22  2  0  0  0  0
 17 18  1  0  0  0  0
 18 19  2  0  0  0  0
 19 20  1  0  0  0  0
 20 21  2  0  0  0  0
 21 22  1  0  0  0  0
 20 23  1  0  0  0  0
 23 24  3  0  0  0  0
  4 25  1  0  0  0  0
 25 26  2  0  0  0  0
 25 27  1  0  0  0  0
 27 28  1  0  0  0  0
 28 29  1  0  0  0  0
 28 30  1  0  0  0  0
 28 31  1  0  0  0  0
M  END
> <ID>
1591046

$$$$
1591047
  -OEChem-05171416412D

 31 32  0     1  0  0  0  0  0999 V2000
    2.0478   -3.8951    0.0000 C   0  0  0  0  0  0  0  0  0  0  0  0
    3.0332   -3.7246    0.0000 C   0  0  0  0  0  0  0  0  0  0  0  0
    3.6735   -4.4926    0.0000 C   0  0  0  0  0  0  0  0  0  0  0  0
    3.3782   -2.7860    0.0000 C   0  0  1  0  0  0  0  0  0  0  0  0
    2.4396   -2.4409    0.0000 H   0  0  0  0  0  0  0  0  0  0  0  0
    3.7232   -1.8474    0.0000 N   0  0  3  0  0  0  0  0  0  0  0  0
    4.7086   -1.6768    0.0000 C   0  0  0  0  0  0  0  0  0  0  0  0
    2.6026   -0.5032    0.0000 C   0  0  1  0  0  0  0  0  0  0  0  0
    1.9580   -1.2678    0.0000 H   0  0  0  0  0  0  0  0  0  0  0  0
    3.4761   -0.0036    0.0000 C   0  0  2  0  0  0  0  0  0  0  0  0
    5.2002    0.2965    0.0000 H   0  0  0  0  0  0  0  0  0  0  0  0
    3.8152   -0.9444    0.0000 O   0  0  0  0  0  0  0  0  0  0  0  0
    3.4774    1.0034    0.0000 C   0  0  0  0  0  0  0  0  0  0  0  0
    3.8219    1.9422    0.0000 C   0  0  0  0  0  0  0  0  0  0  0  0
    4.4619    0.8278    0.0000 C   0  0  0  0  0  0  0  0  0  0  0  0
    2.6052    1.5109    0.0000 O   0  0  0  0  0  0  0  0  0  0  0  0
    1.7374    1.0057    0.0000 C   0  0  0  0  0  0  0  0  0  0  0  0
    0.8680    1.5138    0.0000 C   0  0  0  0  0  0  0  0  0  0  0  0
    0.0000    1.0057    0.0000 C   0  0  0  0  0  0  0  0  0  0  0  0
    0.0000    0.0000    0.0000 C   0  0  0  0  0  0  0  0  0  0  0  0
    0.8680   -0.4978    0.0000 C   0  0  0  0  0  0  0  0  0  0  0  0
    1.7360   -0.0012    0.0000 C   0  0  0  0  0  0  0  0  0  0  0  0
   -0.8653   -0.5013    0.0000 C   0  0  0  0  0  0  0  0  0  0  0  0
   -1.7306   -1.0025    0.0000 N   0  0  0  0  0  0  0  0  0  0  0  0
    4.3168   -3.1310    0.0000 C   0  0  0  0  0  0  0  0  0  0  0  0
    5.0849   -2.4906    0.0000 O   0  0  0  0  0  0  0  0  0  0  0  0
    4.4873   -4.1163    0.0000 O   0  0  0  0  0  0  0  0  0  0  0  0
    5.4259   -4.4613    0.0000 C   0  0  0  0  0  0  0  0  0  0  0  0
    5.0809   -5.3999    0.0000 C   0  0  0  0  0  0  0  0  0  0  0  0
    5.7709   -3.5227    0.0000 C   0  0  0  0  0  0  0  0  0  0  0  0
    6.3645   -4.8063    0.0000 C   0  0  0  0  0  0  0  0  0  0  0  0
  1  2  1  0  0  0  0
  2  3  1  0  0  0  0
  2  4  1  0  0  0  0
  4  5  1  6  0  0  0
  4  6  1  0  0  0  0
  6  7  1  0  0  0  0
  6  8  1  0  0  0  0
  8  9  1  1  0  0  0
  8 22  1  0  0  0  0
  8 10  1  0  0  0  0
 10 11  1  6  0  0  0
 10 12  1  0  0  0  0
 10 13  1  0  0  0  0
 13 14  1  0  0  0  0
 13 15  1  0  0  0  0
 13 16  1  0  0  0  0
 16 17  1  0  0  0  0
 17 22  2  0  0  0  0
 17 18  1  0  0  0  0
 18 19  2  0  0  0  0
 19 20  1  0  0  0  0
 20 21  2  0  0  0  0
 21 22  1  0  0  0  0
 20 23  1  0  0  0  0
 23 24  3  0  0  0  0
  4 25  1  0  0  0  0
 25 26  2  0  0  0  0
 25 27  1  0  0  0  0
 27 28  1  0  0  0  0
 28 29  1  0  0  0  0
 28 30  1  0  0  0  0
 28 31  1  0  0  0  0
M  END
> <ID>
1591047

$$$$
1591048
  -OEChem-05171416412D

 25 26  0     1  0  0  0  0  0999 V2000
    0.8678   -1.4984    0.0000 C   0  0  0  0  0  0  0  0  0  0  0  0
    1.7325   -2.0008    0.0000 C   0  0  3  0  0  0  0  0  0  0  0  0
    2.5999   -1.5032    0.0000 N   0  0  0  0  0  0  0  0  0  0  0  0
    2.6026   -0.5032    0.0000 C   0  0  3  0  0  0  0  0  0  0  0  0
    3.4761   -0.0036    0.0000 C   0  0  3  0  0  0  0  0  0  0  0  0
    4.3408   -0.5059    0.0000 O   0  0  0  0  0  0  0  0  0  0  0  0
    3.4774    1.0034    0.0000 C   0  0  0  0  0  0  0  0  0  0  0  0
    3.8219    1.9422    0.0000 C   0  0  0  0  0  0  0  0  0  0  0  0
    4.4619    0.8278    0.0000 C   0  0  0  0  0  0  0  0  0  0  0  0
    2.6052    1.5109    0.0000 O   0  0  0  0  0  0  0  0  0  0  0  0
    1.7374    1.0057    0.0000 C   0  0  0  0  0  0  0  0  0  0  0  0
    0.8680    1.5138    0.0000 C   0  0  0  0  0  0  0  0  0  0  0  0
    0.0000    1.0057    0.0000 C   0  0  0  0  0  0  0  0  0  0  0  0
    0.0000    0.0000    0.0000 C   0  0  0  0  0  0  0  0  0  0  0  0
    0.8680   -0.4978    0.0000 C   0  0  0  0  0  0  0  0  0  0  0  0
    1.7360   -0.0012    0.0000 C   0  0  0  0  0  0  0  0  0  0  0  0
   -0.8653   -0.5013    0.0000 C   0  0  0  0  0  0  0  0  0  0  0  0
   -1.7306   -1.0025    0.0000 N   0  0  0  0  0  0  0  0  0  0  0  0
    1.7297   -3.0008    0.0000 C   0  0  0  0  0  0  0  0  0  0  0  0
    2.5944   -3.5032    0.0000 O   0  0  0  0  0  0  0  0  0  0  0  0
    0.8623   -3.4984    0.0000 O   0  0  0  0  0  0  0  0  0  0  0  0
    0.8596   -4.4984    0.0000 C   0  0  0  0  0  0  0  0  0  0  0  0
    1.8596   -4.5012    0.0000 C   0  0  0  0  0  0  0  0  0  0  0  0
   -0.1404   -4.4957    0.0000 C   0  0  0  0  0  0  0  0  0  0  0  0
    0.8568   -5.4984    0.0000 C   0  0  0  0  0  0  0  0  0  0  0  0
  1  2  1  0  0  0  0
  2  3  1  0  0  0  0
  3  4  1  0  0  0  0
  4 16  1  0  0  0  0
  4  5  1  0  0  0  0
  5  6  1  0  0  0  0
  5  7  1  0  0  0  0
  7  8  1  0  0  0  0
  7  9  1  0  0  0  0
  7 10  1  0  0  0  0
 10 11  1  0  0  0  0
 11 16  2  0  0  0  0
 11 12  1  0  0  0  0
 12 13  2  0  0  0  0
 13 14  1  0  0  0  0
 14 15  2  0  0  0  0
 15 16  1  0  0  0  0
 14 17  1  0  0  0  0
 17 18  3  0  0  0  0
  2 19  1  0  0  0  0
 19 20  2  0  0  0  0
 19 21  1  0  0  0  0
 21 22  1  0  0  0  0
 22 23  1  0  0  0  0
 22 24  1  0  0  0  0
 22 25  1  0  0  0  0
M  END
> <ID>
1591048

$$$$
1591049
  -OEChem-05171416412D

 28 29  0     1  0  0  0  0  0999 V2000
    2.0780   -2.6769    0.0000 C   0  0  0  0  0  0  0  0  0  0  0  0
    1.3135   -2.0323    0.0000 C   0  0  2  0  0  0  0  0  0  0  0  0
    0.5489   -1.3878    0.0000 H   0  0  0  0  0  0  0  0  0  0  0  0
    1.9580   -1.2678    0.0000 N   0  0  0  0  0  0  0  0  0  0  0  0
    2.6026   -0.5032    0.0000 C   0  0  2  0  0  0  0  0  0  0  0  0
    3.7232   -1.8474    0.0000 H   0  0  0  0  0  0  0  0  0  0  0  0
    3.4761   -0.0036    0.0000 C   0  0  1  0  0  0  0  0  0  0  0  0
    5.2002    0.2965    0.0000 H   0  0  0  0  0  0  0  0  0  0  0  0
    3.8152   -0.9444    0.0000 O   0  0  0  0  0  0  0  0  0  0  0  0
    3.4774    1.0034    0.0000 C   0  0  0  0  0  0  0  0  0  0  0  0
    3.8219    1.9422    0.0000 C   0  0  0  0  0  0  0  0  0  0  0  0
    4.4619    0.8278    0.0000 C   0  0  0  0  0  0  0  0  0  0  0  0
    2.6052    1.5109    0.0000 O   0  0  0  0  0  0  0  0  0  0  0  0
    1.7374    1.0057    0.0000 C   0  0  0  0  0  0  0  0  0  0  0  0
    0.8680    1.5138    0.0000 C   0  0  0  0  0  0  0  0  0  0  0  0
    0.0000    1.0057    0.0000 C   0  0  0  0  0  0  0  0  0  0  0  0
    0.0000    0.0000    0.0000 C   0  0  0  0  0  0  0  0  0  0  0  0
    0.8680   -0.4978    0.0000 C   0  0  0  0  0  0  0  0  0  0  0  0
    1.7360   -0.0012    0.0000 C   0  0  0  0  0  0  0  0  0  0  0  0
   -0.8653   -0.5013    0.0000 C   0  0  0  0  0  0  0  0  0  0  0  0
   -1.7306   -1.0025    0.0000 N   0  0  0  0  0  0  0  0  0  0  0  0
    0.6689   -2.7969    0.0000 C   0  0  0  0  0  0  0  0  0  0  0  0
    1.0088   -3.7373    0.0000 O   0  0  0  0  0  0  0  0  0  0  0  0
   -0.3155   -2.6209    0.0000 O   0  0  0  0  0  0  0  0  0  0  0  0
   -0.9600   -3.3855    0.0000 C   0  0  0  0  0  0  0  0  0  0  0  0
   -1.7246   -2.7409    0.0000 C   0  0  0  0  0  0  0  0  0  0  0  0
   -0.1955   -4.0301    0.0000 C   0  0  0  0  0  0  0  0  0  0  0  0
   -1.6046   -4.1500    0.0000 C   0  0  0  0  0  0  0  0  0  0  0  0
  1  2  1  0  0  0  0
  2  3  1  6  0  0  0
  2  4  1  0  0  0  0
  4  5  1  0  0  0  0
  5  6  1  6  0  0  0
  5 19  1  0  0  0  0
  5  7  1  0  0  0  0
  7  8  1  1  0  0  0
  7  9  1  0  0  0  0
  7 10  1  0  0  0  0
 10 11  1  0  0  0  0
 10 12  1  0  0  0  0
 10 13  1  0  0  0  0
 13 14  1  0  0  0  0
 14 19  2  0  0  0  0
 14 15  1  0  0  0  0
 15 16  2  0  0  0  0
 16 17  1  0  0  0  0
 17 18  2  0  0  0  0
 18 19  1  0  0  0  0
 17 20  1  0  0  0  0
 20 21  3  0  0  0  0
  2 22  1  0  0  0  0
 22 23  2  0  0  0  0
 22 24  1  0  0  0  0
 24 25  1  0  0  0  0
 25 26  1  0  0  0  0
 25 27  1  0  0  0  0
 25 28  1  0  0  0  0
M  END
> <ID>
1591049

$$$$
1591050
  -OEChem-05171416412D

 29 30  0     1  0  0  0  0  0999 V2000
    4.3168   -3.1310    0.0000 C   0  0  0  0  0  0  0  0  0  0  0  0
    3.3782   -2.7860    0.0000 C   0  0  2  0  0  0  0  0  0  0  0  0
    2.4396   -2.4409    0.0000 H   0  0  0  0  0  0  0  0  0  0  0  0
    3.7232   -1.8474    0.0000 N   0  0  3  0  0  0  0  0  0  0  0  0
    4.7086   -1.6768    0.0000 C   0  0  0  0  0  0  0  0  0  0  0  0
    2.6026   -0.5032    0.0000 C   0  0  2  0  0  0  0  0  0  0  0  0
    1.9580   -1.2678    0.0000 H   0  0  0  0  0  0  0  0  0  0  0  0
    3.4761   -0.0036    0.0000 C   0  0  1  0  0  0  0  0  0  0  0  0
    5.2002    0.2965    0.0000 H   0  0  0  0  0  0  0  0  0  0  0  0
    3.8152   -0.9444    0.0000 O   0  0  0  0  0  0  0  0  0  0  0  0
    3.4774    1.0034    0.0000 C   0  0  0  0  0  0  0  0  0  0  0  0
    3.8219    1.9422    0.0000 C   0  0  0  0  0  0  0  0  0  0  0  0
    4.4619    0.8278    0.0000 C   0  0  0  0  0  0  0  0  0  0  0  0
    2.6052    1.5109    0.0000 O   0  0  0  0  0  0  0  0  0  0  0  0
    1.7374    1.0057    0.0000 C   0  0  0  0  0  0  0  0  0  0  0  0
    0.8680    1.5138    0.0000 C   0  0  0  0  0  0  0  0  0  0  0  0
    0.0000    1.0057    0.0000 C   0  0  0  0  0  0  0  0  0  0  0  0
    0.0000    0.0000    0.0000 C   0  0  0  0  0  0  0  0  0  0  0  0
    0.8680   -0.4978    0.0000 C   0  0  0  0  0  0  0  0  0  0  0  0
    1.7360   -0.0012    0.0000 C   0  0  0  0  0  0  0  0  0  0  0  0
   -0.8653   -0.5013    0.0000 C   0  0  0  0  0  0  0  0  0  0  0  0
   -1.7306   -1.0025    0.0000 N   0  0  0  0  0  0  0  0  0  0  0  0
    3.0332   -3.7246    0.0000 C   0  0  0  0  0  0  0  0  0  0  0  0
    3.6735   -4.4926    0.0000 O   0  0  0  0  0  0  0  0  0  0  0  0
    2.0478   -3.8951    0.0000 O   0  0  0  0  0  0  0  0  0  0  0  0
    1.7028   -4.8337    0.0000 C   0  0  0  0  0  0  0  0  0  0  0  0
    0.7642   -4.4886    0.0000 C   0  0  0  0  0  0  0  0  0  0  0  0
    2.6414   -5.1787    0.0000 C   0  0  0  0  0  0  0  0  0  0  0  0
    1.3578   -5.7723    0.0000 C   0  0  0  0  0  0  0  0  0  0  0  0
  1  2  1  0  0  0  0
  2  3  1  6  0  0  0
  2  4  1  0  0  0  0
  4  5  1  0  0  0  0
  4  6  1  0  0  0  0
  6  7  1  6  0  0  0
  6 20  1  0  0  0  0
  6  8  1  0  0  0  0
  8  9  1  1  0  0  0
  8 10  1  0  0  0  0
  8 11  1  0  0  0  0
 11 12  1  0  0  0  0
 11 13  1  0  0  0  0
 11 14  1  0  0  0  0
 14 15  1  0  0  0  0
 15 20  2  0  0  0  0
 15 16  1  0  0  0  0
 16 17  2  0  0  0  0
 17 18  1  0  0  0  0
 18 19  2  0  0  0  0
 19 20  1  0  0  0  0
 18 21  1  0  0  0  0
 21 22  3  0  0  0  0
  2 23  1  0  0  0  0
 23 24  2  0  0  0  0
 23 25  1  0  0  0  0
 25 26  1  0  0  0  0
 26 27  1  0  0  0  0
 26 28  1  0  0  0  0
 26 29  1  0  0  0  0
M  END
> <ID>
1591050

$$$$
1591051
  -OEChem-05171416412D

 29 30  0     1  0  0  0  0  0999 V2000
    4.3168   -3.1310    0.0000 C   0  0  0  0  0  0  0  0  0  0  0  0
    3.3782   -2.7860    0.0000 C   0  0  2  0  0  0  0  0  0  0  0  0
    2.4396   -2.4409    0.0000 H   0  0  0  0  0  0  0  0  0  0  0  0
    3.7232   -1.8474    0.0000 N   0  0  3  0  0  0  0  0  0  0  0  0
    4.7086   -1.6768    0.0000 C   0  0  0  0  0  0  0  0  0  0  0  0
    2.6026   -0.5032    0.0000 C   0  0  1  0  0  0  0  0  0  0  0  0
    1.9580   -1.2678    0.0000 H   0  0  0  0  0  0  0  0  0  0  0  0
    3.4761   -0.0036    0.0000 C   0  0  2  0  0  0  0  0  0  0  0  0
    5.2002    0.2965    0.0000 H   0  0  0  0  0  0  0  0  0  0  0  0
    3.8152   -0.9444    0.0000 O   0  0  0  0  0  0  0  0  0  0  0  0
    3.4774    1.0034    0.0000 C   0  0  0  0  0  0  0  0  0  0  0  0
    3.8219    1.9422    0.0000 C   0  0  0  0  0  0  0  0  0  0  0  0
    4.4619    0.8278    0.0000 C   0  0  0  0  0  0  0  0  0  0  0  0
    2.6052    1.5109    0.0000 O   0  0  0  0  0  0  0  0  0  0  0  0
    1.7374    1.0057    0.0000 C   0  0  0  0  0  0  0  0  0  0  0  0
    0.8680    1.5138    0.0000 C   0  0  0  0  0  0  0  0  0  0  0  0
    0.0000    1.0057    0.0000 C   0  0  0  0  0  0  0  0  0  0  0  0
    0.0000    0.0000    0.0000 C   0  0  0  0  0  0  0  0  0  0  0  0
    0.8680   -0.4978    0.0000 C   0  0  0  0  0  0  0  0  0  0  0  0
    1.7360   -0.0012    0.0000 C   0  0  0  0  0  0  0  0  0  0  0  0
   -0.8653   -0.5013    0.0000 C   0  0  0  0  0  0  0  0  0  0  0  0
   -1.7306   -1.0025    0.0000 N   0  0  0  0  0  0  0  0  0  0  0  0
    3.0332   -3.7246    0.0000 C   0  0  0  0  0  0  0  0  0  0  0  0
    3.6735   -4.4926    0.0000 O   0  0  0  0  0  0  0  0  0  0  0  0
    2.0478   -3.8951    0.0000 O   0  0  0  0  0  0  0  0  0  0  0  0
    1.7028   -4.8337    0.0000 C   0  0  0  0  0  0  0  0  0  0  0  0
    0.7642   -4.4886    0.0000 C   0  0  0  0  0  0  0  0  0  0  0  0
    2.6414   -5.1787    0.0000 C   0  0  0  0  0  0  0  0  0  0  0  0
    1.3578   -5.7723    0.0000 C   0  0  0  0  0  0  0  0  0  0  0  0
  1  2  1  0  0  0  0
  2  3  1  6  0  0  0
  2  4  1  0  0  0  0
  4  5  1  0  0  0  0
  4  6  1  0  0  0  0
  6  7  1  1  0  0  0
  6 20  1  0  0  0  0
  6  8  1  0  0  0  0
  8  9  1  6  0  0  0
  8 10  1  0  0  0  0
  8 11  1  0  0  0  0
 11 12  1  0  0  0  0
 11 13  1  0  0  0  0
 11 14  1  0  0  0  0
 14 15  1  0  0  0  0
 15 20  2  0  0  0  0
 15 16  1  0  0  0  0
 16 17  2  0  0  0  0
 17 18  1  0  0  0  0
 18 19  2  0  0  0  0
 19 20  1  0  0  0  0
 18 21  1  0  0  0  0
 21 22  3  0  0  0  0
  2 23  1  0  0  0  0
 23 24  2  0  0  0  0
 23 25  1  0  0  0  0
 25 26  1  0  0  0  0
 26 27  1  0  0  0  0
 26 28  1  0  0  0  0
 26 29  1  0  0  0  0
M  END
> <ID>
1591051

$$$$
1591052
  -OEChem-05171416412D

 25 27  0     1  0  0  0  0  0999 V2000
    0.0763   -2.5057    0.0000 C   0  0  0  0  0  0  0  0  0  0  0  0
   -0.6868   -1.8594    0.0000 C   0  0  0  0  0  0  0  0  0  0  0  0
   -1.6280   -2.1971    0.0000 C   0  0  0  0  0  0  0  0  0  0  0  0
   -0.5086   -0.8754    0.0000 C   0  0  2  0  0  0  0  0  0  0  0  0
    0.4298   -1.2209    0.0000 H   0  0  0  0  0  0  0  0  0  0  0  0
   -1.5202   -0.8698    0.0000 N   0  0  0  0  0  0  0  0  0  0  0  0
   -2.0212    0.0035    0.0000 C   0  0  1  0  0  0  0  0  0  0  0  0
   -2.5270   -0.8592    0.0000 H   0  0  0  0  0  0  0  0  0  0  0  0
   -1.5126    0.8788    0.0000 C   0  0  2  0  0  0  0  0  0  0  0  0
   -2.5126    0.8840    0.0000 H   0  0  0  0  0  0  0  0  0  0  0  0
   -0.5031    0.8809    0.0000 O   0  0  0  0  0  0  0  0  0  0  0  0
    0.0000    0.0000    0.0000 C   0  0  0  0  0  0  0  0  0  0  0  0
    1.0000   -0.0037    0.0000 O   0  0  0  0  0  0  0  0  0  0  0  0
   -2.0126    1.7601    0.0000 C   0  0  0  0  0  0  0  0  0  0  0  0
   -2.1832    2.7454    0.0000 C   0  0  0  0  0  0  0  0  0  0  0  0
   -1.0711    2.0971    0.0000 C   0  0  0  0  0  0  0  0  0  0  0  0
   -3.0211    1.7610    0.0000 O   0  0  0  0  0  0  0  0  0  0  0  0
   -3.5316    0.8880    0.0000 C   0  0  0  0  0  0  0  0  0  0  0  0
   -4.5316    0.8935    0.0000 C   0  0  0  0  0  0  0  0  0  0  0  0
   -5.0414    0.0275    0.0000 C   0  0  0  0  0  0  0  0  0  0  0  0
   -4.5433   -0.8462    0.0000 C   0  0  0  0  0  0  0  0  0  0  0  0
   -3.5356   -0.8539    0.0000 C   0  0  0  0  0  0  0  0  0  0  0  0
   -3.0336    0.0142    0.0000 C   0  0  0  0  0  0  0  0  0  0  0  0
   -5.0490   -1.7089    0.0000 C   0  0  0  0  0  0  0  0  0  0  0  0
   -5.5546   -2.5717    0.0000 N   0  0  0  0  0  0  0  0  0  0  0  0
  1  2  1  0  0  0  0
  2  3  1  0  0  0  0
  2  4  1  0  0  0  0
  4  5  1  1  0  0  0
  4 12  1  0  0  0  0
  4  6  1  0  0  0  0
  6  7  1  0  0  0  0
  7  8  1  1  0  0  0
  7 23  1  0  0  0  0
  7  9  1  0  0  0  0
  9 10  1  6  0  0  0
  9 11  1  0  0  0  0
 11 12  1  0  0  0  0
 12 13  2  0  0  0  0
  9 14  1  0  0  0  0
 14 15  1  0  0  0  0
 14 16  1  0  0  0  0
 14 17  1  0  0  0  0
 17 18  1  0  0  0  0
 18 23  2  0  0  0  0
 18 19  1  0  0  0  0
 19 20  2  0  0  0  0
 20 21  1  0  0  0  0
 21 22  2  0  0  0  0
 22 23  1  0  0  0  0
 21 24  1  0  0  0  0
 24 25  3  0  0  0  0
M  END
> <ID>
1591052

$$$$
1591053
  -OEChem-05171416412D

 25 27  0     1  0  0  0  0  0999 V2000
    0.0763   -2.5057    0.0000 C   0  0  0  0  0  0  0  0  0  0  0  0
   -0.6868   -1.8594    0.0000 C   0  0  0  0  0  0  0  0  0  0  0  0
   -1.6280   -2.1971    0.0000 C   0  0  0  0  0  0  0  0  0  0  0  0
   -0.5086   -0.8754    0.0000 C   0  0  2  0  0  0  0  0  0  0  0  0
    0.4298   -1.2209    0.0000 H   0  0  0  0  0  0  0  0  0  0  0  0
   -1.5202   -0.8698    0.0000 N   0  0  0  0  0  0  0  0  0  0  0  0
   -2.0212    0.0035    0.0000 C   0  0  2  0  0  0  0  0  0  0  0  0
   -2.5270   -0.8592    0.0000 H   0  0  0  0  0  0  0  0  0  0  0  0
   -1.5126    0.8788    0.0000 C   0  0  1  0  0  0  0  0  0  0  0  0
   -2.5126    0.8840    0.0000 H   0  0  0  0  0  0  0  0  0  0  0  0
   -0.5031    0.8809    0.0000 O   0  0  0  0  0  0  0  0  0  0  0  0
    0.0000    0.0000    0.0000 C   0  0  0  0  0  0  0  0  0  0  0  0
    1.0000   -0.0037    0.0000 O   0  0  0  0  0  0  0  0  0  0  0  0
   -2.0126    1.7601    0.0000 C   0  0  0  0  0  0  0  0  0  0  0  0
   -2.1832    2.7454    0.0000 C   0  0  0  0  0  0  0  0  0  0  0  0
   -1.0711    2.0971    0.0000 C   0  0  0  0  0  0  0  0  0  0  0  0
   -3.0211    1.7610    0.0000 O   0  0  0  0  0  0  0  0  0  0  0  0
   -3.5316    0.8880    0.0000 C   0  0  0  0  0  0  0  0  0  0  0  0
   -4.5316    0.8935    0.0000 C   0  0  0  0  0  0  0  0  0  0  0  0
   -5.0414    0.0275    0.0000 C   0  0  0  0  0  0  0  0  0  0  0  0
   -4.5433   -0.8462    0.0000 C   0  0  0  0  0  0  0  0  0  0  0  0
   -3.5356   -0.8539    0.0000 C   0  0  0  0  0  0  0  0  0  0  0  0
   -3.0336    0.0142    0.0000 C   0  0  0  0  0  0  0  0  0  0  0  0
   -5.0490   -1.7089    0.0000 C   0  0  0  0  0  0  0  0  0  0  0  0
   -5.5546   -2.5717    0.0000 N   0  0  0  0  0  0  0  0  0  0  0  0
  1  2  1  0  0  0  0
  2  3  1  0  0  0  0
  2  4  1  0  0  0  0
  4  5  1  1  0  0  0
  4 12  1  0  0  0  0
  4  6  1  0  0  0  0
  6  7  1  0  0  0  0
  7  8  1  6  0  0  0
  7 23  1  0  0  0  0
  7  9  1  0  0  0  0
  9 10  1  1  0  0  0
  9 11  1  0  0  0  0
 11 12  1  0  0  0  0
 12 13  2  0  0  0  0
  9 14  1  0  0  0  0
 14 15  1  0  0  0  0
 14 16  1  0  0  0  0
 14 17  1  0  0  0  0
 17 18  1  0  0  0  0
 18 23  2  0  0  0  0
 18 19  1  0  0  0  0
 19 20  2  0  0  0  0
 20 21  1  0  0  0  0
 21 22  2  0  0  0  0
 22 23  1  0  0  0  0
 21 24  1  0  0  0  0
 24 25  3  0  0  0  0
M  END
> <ID>
1591053

$$$$
1591054
  -OEChem-05171416412D

 25 27  0     1  0  0  0  0  0999 V2000
    0.0763   -2.5057    0.0000 C   0  0  0  0  0  0  0  0  0  0  0  0
   -0.6868   -1.8594    0.0000 C   0  0  0  0  0  0  0  0  0  0  0  0
   -1.6280   -2.1971    0.0000 C   0  0  0  0  0  0  0  0  0  0  0  0
   -0.5086   -0.8754    0.0000 C   0  0  1  0  0  0  0  0  0  0  0  0
    0.4298   -1.2209    0.0000 H   0  0  0  0  0  0  0  0  0  0  0  0
   -1.5202   -0.8698    0.0000 N   0  0  0  0  0  0  0  0  0  0  0  0
   -2.0212    0.0035    0.0000 C   0  0  2  0  0  0  0  0  0  0  0  0
   -2.5270   -0.8592    0.0000 H   0  0  0  0  0  0  0  0  0  0  0  0
   -1.5126    0.8788    0.0000 C   0  0  1  0  0  0  0  0  0  0  0  0
   -2.5126    0.8840    0.0000 H   0  0  0  0  0  0  0  0  0  0  0  0
   -0.5031    0.8809    0.0000 O   0  0  0  0  0  0  0  0  0  0  0  0
    0.0000    0.0000    0.0000 C   0  0  0  0  0  0  0  0  0  0  0  0
    1.0000   -0.0037    0.0000 O   0  0  0  0  0  0  0  0  0  0  0  0
   -2.0126    1.7601    0.0000 C   0  0  0  0  0  0  0  0  0  0  0  0
   -2.1832    2.7454    0.0000 C   0  0  0  0  0  0  0  0  0  0  0  0
   -1.0711    2.0971    0.0000 C   0  0  0  0  0  0  0  0  0  0  0  0
   -3.0211    1.7610    0.0000 O   0  0  0  0  0  0  0  0  0  0  0  0
   -3.5316    0.8880    0.0000 C   0  0  0  0  0  0  0  0  0  0  0  0
   -4.5316    0.8935    0.0000 C   0  0  0  0  0  0  0  0  0  0  0  0
   -5.0414    0.0275    0.0000 C   0  0  0  0  0  0  0  0  0  0  0  0
   -4.5433   -0.8462    0.0000 C   0  0  0  0  0  0  0  0  0  0  0  0
   -3.5356   -0.8539    0.0000 C   0  0  0  0  0  0  0  0  0  0  0  0
   -3.0336    0.0142    0.0000 C   0  0  0  0  0  0  0  0  0  0  0  0
   -5.0490   -1.7089    0.0000 C   0  0  0  0  0  0  0  0  0  0  0  0
   -5.5546   -2.5717    0.0000 N   0  0  0  0  0  0  0  0  0  0  0  0
  1  2  1  0  0  0  0
  2  3  1  0  0  0  0
  2  4  1  0  0  0  0
  4  5  1  6  0  0  0
  4 12  1  0  0  0  0
  4  6  1  0  0  0  0
  6  7  1  0  0  0  0
  7  8  1  6  0  0  0
  7 23  1  0  0  0  0
  7  9  1  0  0  0  0
  9 10  1  1  0  0  0
  9 11  1  0  0  0  0
 11 12  1  0  0  0  0
 12 13  2  0  0  0  0
  9 14  1  0  0  0  0
 14 15  1  0  0  0  0
 14 16  1  0  0  0  0
 14 17  1  0  0  0  0
 17 18  1  0  0  0  0
 18 23  2  0  0  0  0
 18 19  1  0  0  0  0
 19 20  2  0  0  0  0
 20 21  1  0  0  0  0
 21 22  2  0  0  0  0
 22 23  1  0  0  0  0
 21 24  1  0  0  0  0
 24 25  3  0  0  0  0
M  END
> <ID>
1591054

$$$$
1591055
  -OEChem-05171416412D

 23 25  0     1  0  0  0  0  0999 V2000
    0.4298   -1.2209    0.0000 C   0  0  0  0  0  0  0  0  0  0  0  0
   -0.5086   -0.8754    0.0000 C   0  0  2  0  0  0  0  0  0  0  0  0
   -0.6868   -1.8594    0.0000 H   0  0  0  0  0  0  0  0  0  0  0  0
   -1.5202   -0.8698    0.0000 N   0  0  0  0  0  0  0  0  0  0  0  0
   -2.0212    0.0035    0.0000 C   0  0  2  0  0  0  0  0  0  0  0  0
   -2.5270   -0.8592    0.0000 H   0  0  0  0  0  0  0  0  0  0  0  0
   -1.5126    0.8788    0.0000 C   0  0  1  0  0  0  0  0  0  0  0  0
   -2.5126    0.8840    0.0000 H   0  0  0  0  0  0  0  0  0  0  0  0
   -0.5031    0.8809    0.0000 O   0  0  0  0  0  0  0  0  0  0  0  0
    0.0000    0.0000    0.0000 C   0  0  0  0  0  0  0  0  0  0  0  0
    1.0000   -0.0037    0.0000 O   0  0  0  0  0  0  0  0  0  0  0  0
   -2.0126    1.7601    0.0000 C   0  0  0  0  0  0  0  0  0  0  0  0
   -2.1832    2.7454    0.0000 C   0  0  0  0  0  0  0  0  0  0  0  0
   -1.0711    2.0971    0.0000 C   0  0  0  0  0  0  0  0  0  0  0  0
   -3.0211    1.7610    0.0000 O   0  0  0  0  0  0  0  0  0  0  0  0
   -3.5316    0.8880    0.0000 C   0  0  0  0  0  0  0  0  0  0  0  0
   -4.5316    0.8935    0.0000 C   0  0  0  0  0  0  0  0  0  0  0  0
   -5.0414    0.0275    0.0000 C   0  0  0  0  0  0  0  0  0  0  0  0
   -4.5433   -0.8462    0.0000 C   0  0  0  0  0  0  0  0  0  0  0  0
   -3.5356   -0.8539    0.0000 C   0  0  0  0  0  0  0  0  0  0  0  0
   -3.0336    0.0142    0.0000 C   0  0  0  0  0  0  0  0  0  0  0  0
   -5.0490   -1.7089    0.0000 C   0  0  0  0  0  0  0  0  0  0  0  0
   -5.5546   -2.5717    0.0000 N   0  0  0  0  0  0  0  0  0  0  0  0
  1  2  1  0  0  0  0
  2  3  1  1  0  0  0
  2 10  1  0  0  0  0
  2  4  1  0  0  0  0
  4  5  1  0  0  0  0
  5  6  1  6  0  0  0
  5 21  1  0  0  0  0
  5  7  1  0  0  0  0
  7  8  1  1  0  0  0
  7  9  1  0  0  0  0
  9 10  1  0  0  0  0
 10 11  2  0  0  0  0
  7 12  1  0  0  0  0
 12 13  1  0  0  0  0
 12 14  1  0  0  0  0
 12 15  1  0  0  0  0
 15 16  1  0  0  0  0
 16 21  2  0  0  0  0
 16 17  1  0  0  0  0
 17 18  2  0  0  0  0
 18 19  1  0  0  0  0
 19 20  2  0  0  0  0
 20 21  1  0  0  0  0
 19 22  1  0  0  0  0
 22 23  3  0  0  0  0
M  END
> <ID>
1591055

$$$$
1591056
  -OEChem-05171416412D

 24 26  0     1  0  0  0  0  0999 V2000
    0.4298   -1.2209    0.0000 C   0  0  0  0  0  0  0  0  0  0  0  0
   -0.5086   -0.8754    0.0000 C   0  0  2  0  0  0  0  0  0  0  0  0
   -0.6868   -1.8594    0.0000 H   0  0  0  0  0  0  0  0  0  0  0  0
   -1.5202   -0.8698    0.0000 N   0  0  3  0  0  0  0  0  0  0  0  0
   -2.0238   -1.7337    0.0000 C   0  0  0  0  0  0  0  0  0  0  0  0
   -2.0212    0.0035    0.0000 C   0  0  2  0  0  0  0  0  0  0  0  0
   -2.5270   -0.8592    0.0000 H   0  0  0  0  0  0  0  0  0  0  0  0
   -1.5126    0.8788    0.0000 C   0  0  1  0  0  0  0  0  0  0  0  0
   -2.5126    0.8840    0.0000 H   0  0  0  0  0  0  0  0  0  0  0  0
   -0.5031    0.8809    0.0000 O   0  0  0  0  0  0  0  0  0  0  0  0
    0.0000    0.0000    0.0000 C   0  0  0  0  0  0  0  0  0  0  0  0
    1.0000   -0.0037    0.0000 O   0  0  0  0  0  0  0  0  0  0  0  0
   -2.0126    1.7601    0.0000 C   0  0  0  0  0  0  0  0  0  0  0  0
   -2.1832    2.7454    0.0000 C   0  0  0  0  0  0  0  0  0  0  0  0
   -1.0711    2.0971    0.0000 C   0  0  0  0  0  0  0  0  0  0  0  0
   -3.0211    1.7610    0.0000 O   0  0  0  0  0  0  0  0  0  0  0  0
   -3.5316    0.8880    0.0000 C   0  0  0  0  0  0  0  0  0  0  0  0
   -4.5316    0.8935    0.0000 C   0  0  0  0  0  0  0  0  0  0  0  0
   -5.0414    0.0275    0.0000 C   0  0  0  0  0  0  0  0  0  0  0  0
   -4.5433   -0.8462    0.0000 C   0  0  0  0  0  0  0  0  0  0  0  0
   -3.5356   -0.8539    0.0000 C   0  0  0  0  0  0  0  0  0  0  0  0
   -3.0336    0.0142    0.0000 C   0  0  0  0  0  0  0  0  0  0  0  0
   -5.0490   -1.7089    0.0000 C   0  0  0  0  0  0  0  0  0  0  0  0
   -5.5546   -2.5717    0.0000 N   0  0  0  0  0  0  0  0  0  0  0  0
  1  2  1  0  0  0  0
  2  3  1  1  0  0  0
  2 11  1  0  0  0  0
  2  4  1  0  0  0  0
  4  5  1  0  0  0  0
  4  6  1  0  0  0  0
  6  7  1  6  0  0  0
  6 22  1  0  0  0  0
  6  8  1  0  0  0  0
  8  9  1  1  0  0  0
  8 10  1  0  0  0  0
 10 11  1  0  0  0  0
 11 12  2  0  0  0  0
  8 13  1  0  0  0  0
 13 14  1  0  0  0  0
 13 15  1  0  0  0  0
 13 16  1  0  0  0  0
 16 17  1  0  0  0  0
 17 22  2  0  0  0  0
 17 18  1  0  0  0  0
 18 19  2  0  0  0  0
 19 20  1  0  0  0  0
 20 21  2  0  0  0  0
 21 22  1  0  0  0  0
 20 23  1  0  0  0  0
 23 24  3  0  0  0  0
M  END
> <ID>
1591056

$$$$
1591057
  -OEChem-05171416412D

 23 25  0     1  0  0  0  0  0999 V2000
    0.4298   -1.2209    0.0000 C   0  0  0  0  0  0  0  0  0  0  0  0
   -0.5086   -0.8754    0.0000 C   0  0  2  0  0  0  0  0  0  0  0  0
   -0.6868   -1.8594    0.0000 H   0  0  0  0  0  0  0  0  0  0  0  0
   -1.5202   -0.8698    0.0000 N   0  0  0  0  0  0  0  0  0  0  0  0
   -2.0212    0.0035    0.0000 C   0  0  1  0  0  0  0  0  0  0  0  0
   -2.5270   -0.8592    0.0000 H   0  0  0  0  0  0  0  0  0  0  0  0
   -1.5126    0.8788    0.0000 C   0  0  2  0  0  0  0  0  0  0  0  0
   -2.5126    0.8840    0.0000 H   0  0  0  0  0  0  0  0  0  0  0  0
   -0.5031    0.8809    0.0000 O   0  0  0  0  0  0  0  0  0  0  0  0
    0.0000    0.0000    0.0000 C   0  0  0  0  0  0  0  0  0  0  0  0
    1.0000   -0.0037    0.0000 O   0  0  0  0  0  0  0  0  0  0  0  0
   -2.0126    1.7601    0.0000 C   0  0  0  0  0  0  0  0  0  0  0  0
   -2.1832    2.7454    0.0000 C   0  0  0  0  0  0  0  0  0  0  0  0
   -1.0711    2.0971    0.0000 C   0  0  0  0  0  0  0  0  0  0  0  0
   -3.0211    1.7610    0.0000 O   0  0  0  0  0  0  0  0  0  0  0  0
   -3.5316    0.8880    0.0000 C   0  0  0  0  0  0  0  0  0  0  0  0
   -4.5316    0.8935    0.0000 C   0  0  0  0  0  0  0  0  0  0  0  0
   -5.0414    0.0275    0.0000 C   0  0  0  0  0  0  0  0  0  0  0  0
   -4.5433   -0.8462    0.0000 C   0  0  0  0  0  0  0  0  0  0  0  0
   -3.5356   -0.8539    0.0000 C   0  0  0  0  0  0  0  0  0  0  0  0
   -3.0336    0.0142    0.0000 C   0  0  0  0  0  0  0  0  0  0  0  0
   -5.0490   -1.7089    0.0000 C   0  0  0  0  0  0  0  0  0  0  0  0
   -5.5546   -2.5717    0.0000 N   0  0  0  0  0  0  0  0  0  0  0  0
  1  2  1  0  0  0  0
  2  3  1  1  0  0  0
  2 10  1  0  0  0  0
  2  4  1  0  0  0  0
  4  5  1  0  0  0  0
  5  6  1  1  0  0  0
  5 21  1  0  0  0  0
  5  7  1  0  0  0  0
  7  8  1  6  0  0  0
  7  9  1  0  0  0  0
  9 10  1  0  0  0  0
 10 11  2  0  0  0  0
  7 12  1  0  0  0  0
 12 13  1  0  0  0  0
 12 14  1  0  0  0  0
 12 15  1  0  0  0  0
 15 16  1  0  0  0  0
 16 21  2  0  0  0  0
 16 17  1  0  0  0  0
 17 18  2  0  0  0  0
 18 19  1  0  0  0  0
 19 20  2  0  0  0  0
 20 21  1  0  0  0  0
 19 22  1  0  0  0  0
 22 23  3  0  0  0  0
M  END
> <ID>
1591057

$$$$
1591058
  -OEChem-05171416412D

 24 26  0     1  0  0  0  0  0999 V2000
    0.4298   -1.2209    0.0000 C   0  0  0  0  0  0  0  0  0  0  0  0
   -0.5086   -0.8754    0.0000 C   0  0  2  0  0  0  0  0  0  0  0  0
   -0.6868   -1.8594    0.0000 H   0  0  0  0  0  0  0  0  0  0  0  0
   -1.5202   -0.8698    0.0000 N   0  0  3  0  0  0  0  0  0  0  0  0
   -2.0238   -1.7337    0.0000 C   0  0  0  0  0  0  0  0  0  0  0  0
   -2.0212    0.0035    0.0000 C   0  0  1  0  0  0  0  0  0  0  0  0
   -2.5270   -0.8592    0.0000 H   0  0  0  0  0  0  0  0  0  0  0  0
   -1.5126    0.8788    0.0000 C   0  0  2  0  0  0  0  0  0  0  0  0
   -2.5126    0.8840    0.0000 H   0  0  0  0  0  0  0  0  0  0  0  0
   -0.5031    0.8809    0.0000 O   0  0  0  0  0  0  0  0  0  0  0  0
    0.0000    0.0000    0.0000 C   0  0  0  0  0  0  0  0  0  0  0  0
    1.0000   -0.0037    0.0000 O   0  0  0  0  0  0  0  0  0  0  0  0
   -2.0126    1.7601    0.0000 C   0  0  0  0  0  0  0  0  0  0  0  0
   -2.1832    2.7454    0.0000 C   0  0  0  0  0  0  0  0  0  0  0  0
   -1.0711    2.0971    0.0000 C   0  0  0  0  0  0  0  0  0  0  0  0
   -3.0211    1.7610    0.0000 O   0  0  0  0  0  0  0  0  0  0  0  0
   -3.5316    0.8880    0.0000 C   0  0  0  0  0  0  0  0  0  0  0  0
   -4.5316    0.8935    0.0000 C   0  0  0  0  0  0  0  0  0  0  0  0
   -5.0414    0.0275    0.0000 C   0  0  0  0  0  0  0  0  0  0  0  0
   -4.5433   -0.8462    0.0000 C   0  0  0  0  0  0  0  0  0  0  0  0
   -3.5356   -0.8539    0.0000 C   0  0  0  0  0  0  0  0  0  0  0  0
   -3.0336    0.0142    0.0000 C   0  0  0  0  0  0  0  0  0  0  0  0
   -5.0490   -1.7089    0.0000 C   0  0  0  0  0  0  0  0  0  0  0  0
   -5.5546   -2.5717    0.0000 N   0  0  0  0  0  0  0  0  0  0  0  0
  1  2  1  0  0  0  0
  2  3  1  1  0  0  0
  2 11  1  0  0  0  0
  2  4  1  0  0  0  0
  4  5  1  0  0  0  0
  4  6  1  0  0  0  0
  6  7  1  1  0  0  0
  6 22  1  0  0  0  0
  6  8  1  0  0  0  0
  8  9  1  6  0  0  0
  8 10  1  0  0  0  0
 10 11  1  0  0  0  0
 11 12  2  0  0  0  0
  8 13  1  0  0  0  0
 13 14  1  0  0  0  0
 13 15  1  0  0  0  0
 13 16  1  0  0  0  0
 16 17  1  0  0  0  0
 17 22  2  0  0  0  0
 17 18  1  0  0  0  0
 18 19  2  0  0  0  0
 19 20  1  0  0  0  0
 20 21  2  0  0  0  0
 21 22  1  0  0  0  0
 20 23  1  0  0  0  0
 23 24  3  0  0  0  0
M  END
> <ID>
1591058

$$$$
1591059
  -OEChem-05171416412D

 26 28  0     1  0  0  0  0  0999 V2000
    1.9021   -0.8400    0.0000 C   0  0  0  0  0  0  0  0  0  0  0  0
    1.1337   -1.4800    0.0000 C   0  0  0  0  0  0  0  0  0  0  0  0
    1.3037   -2.4654    0.0000 C   0  0  0  0  0  0  0  0  0  0  0  0
   -0.5086   -0.8754    0.0000 C   0  0  2  0  0  0  0  0  0  0  0  0
   -0.6868   -1.8594    0.0000 H   0  0  0  0  0  0  0  0  0  0  0  0
   -1.5202   -0.8698    0.0000 N   0  0  3  0  0  0  0  0  0  0  0  0
   -2.0238   -1.7337    0.0000 C   0  0  0  0  0  0  0  0  0  0  0  0
   -2.0212    0.0035    0.0000 C   0  0  1  0  0  0  0  0  0  0  0  0
   -2.5270   -0.8592    0.0000 H   0  0  0  0  0  0  0  0  0  0  0  0
   -1.5126    0.8788    0.0000 C   0  0  2  0  0  0  0  0  0  0  0  0
   -2.5126    0.8840    0.0000 H   0  0  0  0  0  0  0  0  0  0  0  0
   -0.5031    0.8809    0.0000 O   0  0  0  0  0  0  0  0  0  0  0  0
    0.0000    0.0000    0.0000 C   0  0  0  0  0  0  0  0  0  0  0  0
    1.0000   -0.0037    0.0000 O   0  0  0  0  0  0  0  0  0  0  0  0
   -2.0126    1.7601    0.0000 C   0  0  0  0  0  0  0  0  0  0  0  0
   -2.1832    2.7454    0.0000 C   0  0  0  0  0  0  0  0  0  0  0  0
   -1.0711    2.0971    0.0000 C   0  0  0  0  0  0  0  0  0  0  0  0
   -3.0211    1.7610    0.0000 O   0  0  0  0  0  0  0  0  0  0  0  0
   -3.5316    0.8880    0.0000 C   0  0  0  0  0  0  0  0  0  0  0  0
   -4.5316    0.8935    0.0000 C   0  0  0  0  0  0  0  0  0  0  0  0
   -5.0414    0.0275    0.0000 C   0  0  0  0  0  0  0  0  0  0  0  0
   -4.5433   -0.8462    0.0000 C   0  0  0  0  0  0  0  0  0  0  0  0
   -3.5356   -0.8539    0.0000 C   0  0  0  0  0  0  0  0  0  0  0  0
   -3.0336    0.0142    0.0000 C   0  0  0  0  0  0  0  0  0  0  0  0
   -5.0490   -1.7089    0.0000 C   0  0  0  0  0  0  0  0  0  0  0  0
   -5.5546   -2.5717    0.0000 N   0  0  0  0  0  0  0  0  0  0  0  0
  1  2  1  0  0  0  0
  2  3  1  0  0  0  0
  2  4  1  0  0  0  0
  4  5  1  1  0  0  0
  4 13  1  0  0  0  0
  4  6  1  0  0  0  0
  6  7  1  0  0  0  0
  6  8  1  0  0  0  0
  8  9  1  1  0  0  0
  8 24  1  0  0  0  0
  8 10  1  0  0  0  0
 10 11  1  6  0  0  0
 10 12  1  0  0  0  0
 12 13  1  0  0  0  0
 13 14  2  0  0  0  0
 10 15  1  0  0  0  0
 15 16  1  0  0  0  0
 15 17  1  0  0  0  0
 15 18  1  0  0  0  0
 18 19  1  0  0  0  0
 19 24  2  0  0  0  0
 19 20  1  0  0  0  0
 20 21  2  0  0  0  0
 21 22  1  0  0  0  0
 22 23  2  0  0  0  0
 23 24  1  0  0  0  0
 22 25  1  0  0  0  0
 25 26  3  0  0  0  0
M  END
> <ID>
1591059

$$$$
1591060
  -OEChem-05171416412D

 26 28  0     1  0  0  0  0  0999 V2000
    1.9021   -0.8400    0.0000 C   0  0  0  0  0  0  0  0  0  0  0  0
    1.1337   -1.4800    0.0000 C   0  0  0  0  0  0  0  0  0  0  0  0
    1.3037   -2.4654    0.0000 C   0  0  0  0  0  0  0  0  0  0  0  0
   -0.5086   -0.8754    0.0000 C   0  0  1  0  0  0  0  0  0  0  0  0
   -0.6868   -1.8594    0.0000 H   0  0  0  0  0  0  0  0  0  0  0  0
   -1.5202   -0.8698    0.0000 N   0  0  3  0  0  0  0  0  0  0  0  0
   -2.0238   -1.7337    0.0000 C   0  0  0  0  0  0  0  0  0  0  0  0
   -2.0212    0.0035    0.0000 C   0  0  1  0  0  0  0  0  0  0  0  0
   -2.5270   -0.8592    0.0000 H   0  0  0  0  0  0  0  0  0  0  0  0
   -1.5126    0.8788    0.0000 C   0  0  2  0  0  0  0  0  0  0  0  0
   -2.5126    0.8840    0.0000 H   0  0  0  0  0  0  0  0  0  0  0  0
   -0.5031    0.8809    0.0000 O   0  0  0  0  0  0  0  0  0  0  0  0
    0.0000    0.0000    0.0000 C   0  0  0  0  0  0  0  0  0  0  0  0
    1.0000   -0.0037    0.0000 O   0  0  0  0  0  0  0  0  0  0  0  0
   -2.0126    1.7601    0.0000 C   0  0  0  0  0  0  0  0  0  0  0  0
   -2.1832    2.7454    0.0000 C   0  0  0  0  0  0  0  0  0  0  0  0
   -1.0711    2.0971    0.0000 C   0  0  0  0  0  0  0  0  0  0  0  0
   -3.0211    1.7610    0.0000 O   0  0  0  0  0  0  0  0  0  0  0  0
   -3.5316    0.8880    0.0000 C   0  0  0  0  0  0  0  0  0  0  0  0
   -4.5316    0.8935    0.0000 C   0  0  0  0  0  0  0  0  0  0  0  0
   -5.0414    0.0275    0.0000 C   0  0  0  0  0  0  0  0  0  0  0  0
   -4.5433   -0.8462    0.0000 C   0  0  0  0  0  0  0  0  0  0  0  0
   -3.5356   -0.8539    0.0000 C   0  0  0  0  0  0  0  0  0  0  0  0
   -3.0336    0.0142    0.0000 C   0  0  0  0  0  0  0  0  0  0  0  0
   -5.0490   -1.7089    0.0000 C   0  0  0  0  0  0  0  0  0  0  0  0
   -5.5546   -2.5717    0.0000 N   0  0  0  0  0  0  0  0  0  0  0  0
  1  2  1  0  0  0  0
  2  3  1  0  0  0  0
  2  4  1  0  0  0  0
  4  5  1  6  0  0  0
  4 13  1  0  0  0  0
  4  6  1  0  0  0  0
  6  7  1  0  0  0  0
  6  8  1  0  0  0  0
  8  9  1  1  0  0  0
  8 24  1  0  0  0  0
  8 10  1  0  0  0  0
 10 11  1  6  0  0  0
 10 12  1  0  0  0  0
 12 13  1  0  0  0  0
 13 14  2  0  0  0  0
 10 15  1  0  0  0  0
 15 16  1  0  0  0  0
 15 17  1  0  0  0  0
 15 18  1  0  0  0  0
 18 19  1  0  0  0  0
 19 24  2  0  0  0  0
 19 20  1  0  0  0  0
 20 21  2  0  0  0  0
 21 22  1  0  0  0  0
 22 23  2  0  0  0  0
 23 24  1  0  0  0  0
 22 25  1  0  0  0  0
 25 26  3  0  0  0  0
M  END
> <ID>
1591060

$$$$
1591061
  -OEChem-05171416412D

 26 28  0     1  0  0  0  0  0999 V2000
    1.9021   -0.8400    0.0000 C   0  0  0  0  0  0  0  0  0  0  0  0
    1.1337   -1.4800    0.0000 C   0  0  0  0  0  0  0  0  0  0  0  0
    1.3037   -2.4654    0.0000 C   0  0  0  0  0  0  0  0  0  0  0  0
   -0.5086   -0.8754    0.0000 C   0  0  1  0  0  0  0  0  0  0  0  0
   -0.6868   -1.8594    0.0000 H   0  0  0  0  0  0  0  0  0  0  0  0
   -1.5202   -0.8698    0.0000 N   0  0  3  0  0  0  0  0  0  0  0  0
   -2.0238   -1.7337    0.0000 C   0  0  0  0  0  0  0  0  0  0  0  0
   -2.0212    0.0035    0.0000 C   0  0  2  0  0  0  0  0  0  0  0  0
   -2.5270   -0.8592    0.0000 H   0  0  0  0  0  0  0  0  0  0  0  0
   -1.5126    0.8788    0.0000 C   0  0  1  0  0  0  0  0  0  0  0  0
   -2.5126    0.8840    0.0000 H   0  0  0  0  0  0  0  0  0  0  0  0
   -0.5031    0.8809    0.0000 O   0  0  0  0  0  0  0  0  0  0  0  0
    0.0000    0.0000    0.0000 C   0  0  0  0  0  0  0  0  0  0  0  0
    1.0000   -0.0037    0.0000 O   0  0  0  0  0  0  0  0  0  0  0  0
   -2.0126    1.7601    0.0000 C   0  0  0  0  0  0  0  0  0  0  0  0
   -2.1832    2.7454    0.0000 C   0  0  0  0  0  0  0  0  0  0  0  0
   -1.0711    2.0971    0.0000 C   0  0  0  0  0  0  0  0  0  0  0  0
   -3.0211    1.7610    0.0000 O   0  0  0  0  0  0  0  0  0  0  0  0
   -3.5316    0.8880    0.0000 C   0  0  0  0  0  0  0  0  0  0  0  0
   -4.5316    0.8935    0.0000 C   0  0  0  0  0  0  0  0  0  0  0  0
   -5.0414    0.0275    0.0000 C   0  0  0  0  0  0  0  0  0  0  0  0
   -4.5433   -0.8462    0.0000 C   0  0  0  0  0  0  0  0  0  0  0  0
   -3.5356   -0.8539    0.0000 C   0  0  0  0  0  0  0  0  0  0  0  0
   -3.0336    0.0142    0.0000 C   0  0  0  0  0  0  0  0  0  0  0  0
   -5.0490   -1.7089    0.0000 C   0  0  0  0  0  0  0  0  0  0  0  0
   -5.5546   -2.5717    0.0000 N   0  0  0  0  0  0  0  0  0  0  0  0
  1  2  1  0  0  0  0
  2  3  1  0  0  0  0
  2  4  1  0  0  0  0
  4  5  1  6  0  0  0
  4 13  1  0  0  0  0
  4  6  1  0  0  0  0
  6  7  1  0  0  0  0
  6  8  1  0  0  0  0
  8  9  1  6  0  0  0
  8 24  1  0  0  0  0
  8 10  1  0  0  0  0
 10 11  1  1  0  0  0
 10 12  1  0  0  0  0
 12 13  1  0  0  0  0
 13 14  2  0  0  0  0
 10 15  1  0  0  0  0
 15 16  1  0  0  0  0
 15 17  1  0  0  0  0
 15 18  1  0  0  0  0
 18 19  1  0  0  0  0
 19 24  2  0  0  0  0
 19 20  1  0  0  0  0
 20 21  2  0  0  0  0
 21 22  1  0  0  0  0
 22 23  2  0  0  0  0
 23 24  1  0  0  0  0
 22 25  1  0  0  0  0
 25 26  3  0  0  0  0
M  END
> <ID>
1591061

$$$$
1591062
  -OEChem-05171416412D

 26 28  0     1  0  0  0  0  0999 V2000
    1.9021   -0.8400    0.0000 C   0  0  0  0  0  0  0  0  0  0  0  0
    1.1337   -1.4800    0.0000 C   0  0  0  0  0  0  0  0  0  0  0  0
    1.3037   -2.4654    0.0000 C   0  0  0  0  0  0  0  0  0  0  0  0
   -0.5086   -0.8754    0.0000 C   0  0  2  0  0  0  0  0  0  0  0  0
   -0.6868   -1.8594    0.0000 H   0  0  0  0  0  0  0  0  0  0  0  0
   -1.5202   -0.8698    0.0000 N   0  0  3  0  0  0  0  0  0  0  0  0
   -2.0238   -1.7337    0.0000 C   0  0  0  0  0  0  0  0  0  0  0  0
   -2.0212    0.0035    0.0000 C   0  0  2  0  0  0  0  0  0  0  0  0
   -2.5270   -0.8592    0.0000 H   0  0  0  0  0  0  0  0  0  0  0  0
   -1.5126    0.8788    0.0000 C   0  0  1  0  0  0  0  0  0  0  0  0
   -2.5126    0.8840    0.0000 H   0  0  0  0  0  0  0  0  0  0  0  0
   -0.5031    0.8809    0.0000 O   0  0  0  0  0  0  0  0  0  0  0  0
    0.0000    0.0000    0.0000 C   0  0  0  0  0  0  0  0  0  0  0  0
    1.0000   -0.0037    0.0000 O   0  0  0  0  0  0  0  0  0  0  0  0
   -2.0126    1.7601    0.0000 C   0  0  0  0  0  0  0  0  0  0  0  0
   -2.1832    2.7454    0.0000 C   0  0  0  0  0  0  0  0  0  0  0  0
   -1.0711    2.0971    0.0000 C   0  0  0  0  0  0  0  0  0  0  0  0
   -3.0211    1.7610    0.0000 O   0  0  0  0  0  0  0  0  0  0  0  0
   -3.5316    0.8880    0.0000 C   0  0  0  0  0  0  0  0  0  0  0  0
   -4.5316    0.8935    0.0000 C   0  0  0  0  0  0  0  0  0  0  0  0
   -5.0414    0.0275    0.0000 C   0  0  0  0  0  0  0  0  0  0  0  0
   -4.5433   -0.8462    0.0000 C   0  0  0  0  0  0  0  0  0  0  0  0
   -3.5356   -0.8539    0.0000 C   0  0  0  0  0  0  0  0  0  0  0  0
   -3.0336    0.0142    0.0000 C   0  0  0  0  0  0  0  0  0  0  0  0
   -5.0490   -1.7089    0.0000 C   0  0  0  0  0  0  0  0  0  0  0  0
   -5.5546   -2.5717    0.0000 N   0  0  0  0  0  0  0  0  0  0  0  0
  1  2  1  0  0  0  0
  2  3  1  0  0  0  0
  2  4  1  0  0  0  0
  4  5  1  1  0  0  0
  4 13  1  0  0  0  0
  4  6  1  0  0  0  0
  6  7  1  0  0  0  0
  6  8  1  0  0  0  0
  8  9  1  6  0  0  0
  8 24  1  0  0  0  0
  8 10  1  0  0  0  0
 10 11  1  1  0  0  0
 10 12  1  0  0  0  0
 12 13  1  0  0  0  0
 13 14  2  0  0  0  0
 10 15  1  0  0  0  0
 15 16  1  0  0  0  0
 15 17  1  0  0  0  0
 15 18  1  0  0  0  0
 18 19  1  0  0  0  0
 19 24  2  0  0  0  0
 19 20  1  0  0  0  0
 20 21  2  0  0  0  0
 21 22  1  0  0  0  0
 22 23  2  0  0  0  0
 23 24  1  0  0  0  0
 22 25  1  0  0  0  0
 25 26  3  0  0  0  0
M  END
> <ID>
1591062

$$$$
1591063
  -OEChem-05171416412D

 33 35  0     1  0  0  0  0  0999 V2000
    6.2846   -4.9197    0.0000 C   0  0  0  0  0  0  0  0  0  0  0  0
    5.6442   -4.1516    0.0000 C   0  0  0  0  0  0  0  0  0  0  0  0
    4.8761   -4.7920    0.0000 C   0  0  0  0  0  0  0  0  0  0  0  0
    6.4123   -3.5113    0.0000 C   0  0  0  0  0  0  0  0  0  0  0  0
    5.0039   -3.3835    0.0000 O   0  0  0  0  0  0  0  0  0  0  0  0
    4.0185   -3.5540    0.0000 C   0  0  0  0  0  0  0  0  0  0  0  0
    3.6735   -4.4926    0.0000 O   0  0  0  0  0  0  0  0  0  0  0  0
    3.3782   -2.7860    0.0000 C   0  0  3  0  0  0  0  0  0  0  0  0
    2.3928   -2.9565    0.0000 C   0  0  0  0  0  0  0  0  0  0  0  0
    2.0478   -3.8951    0.0000 C   0  0  0  0  0  0  0  0  0  0  0  0
    2.6938   -4.6652    0.0000 C   0  0  0  0  0  0  0  0  0  0  0  0
    2.3488   -5.6039    0.0000 C   0  0  0  0  0  0  0  0  0  0  0  0
    1.3644   -5.7802    0.0000 C   0  0  0  0  0  0  0  0  0  0  0  0
    0.7185   -5.0100    0.0000 C   0  0  0  0  0  0  0  0  0  0  0  0
    1.0569   -4.0635    0.0000 C   0  0  0  0  0  0  0  0  0  0  0  0
    3.7232   -1.8474    0.0000 N   0  0  0  0  0  0  0  0  0  0  0  0
    2.6026   -0.5032    0.0000 C   0  0  2  0  0  0  0  0  0  0  0  0
    1.9580   -1.2678    0.0000 H   0  0  0  0  0  0  0  0  0  0  0  0
    3.4761   -0.0036    0.0000 C   0  0  1  0  0  0  0  0  0  0  0  0
    5.2002    0.2965    0.0000 H   0  0  0  0  0  0  0  0  0  0  0  0
    3.8152   -0.9444    0.0000 O   0  0  0  0  0  0  0  0  0  0  0  0
    3.4774    1.0034    0.0000 C   0  0  0  0  0  0  0  0  0  0  0  0
    3.8219    1.9422    0.0000 C   0  0  0  0  0  0  0  0  0  0  0  0
    4.4619    0.8278    0.0000 C   0  0  0  0  0  0  0  0  0  0  0  0
    2.6052    1.5109    0.0000 O   0  0  0  0  0  0  0  0  0  0  0  0
    1.7374    1.0057    0.0000 C   0  0  0  0  0  0  0  0  0  0  0  0
    0.8680    1.5138    0.0000 C   0  0  0  0  0  0  0  0  0  0  0  0
    0.0000    1.0057    0.0000 C   0  0  0  0  0  0  0  0  0  0  0  0
    0.0000    0.0000    0.0000 C   0  0  0  0  0  0  0  0  0  0  0  0
    0.8680   -0.4978    0.0000 C   0  0  0  0  0  0  0  0  0  0  0  0
    1.7360   -0.0012    0.0000 C   0  0  0  0  0  0  0  0  0  0  0  0
   -0.8653   -0.5013    0.0000 C   0  0  0  0  0  0  0  0  0  0  0  0
   -1.7306   -1.0025    0.0000 N   0  0  0  0  0  0  0  0  0  0  0  0
  1  2  1  0  0  0  0
  2  3  1  0  0  0  0
  2  4  1  0  0  0  0
  2  5  1  0  0  0  0
  5  6  1  0  0  0  0
  6  7  2  0  0  0  0
  6  8  1  0  0  0  0
  8  9  1  0  0  0  0
  9 10  1  0  0  0  0
 10 15  2  0  0  0  0
 10 11  1  0  0  0  0
 11 12  2  0  0  0  0
 12 13  1  0  0  0  0
 13 14  2  0  0  0  0
 14 15  1  0  0  0  0
  8 16  1  0  0  0  0
 16 17  1  0  0  0  0
 17 18  1  6  0  0  0
 17 31  1  0  0  0  0
 17 19  1  0  0  0  0
 19 20  1  1  0  0  0
 19 21  1  0  0  0  0
 19 22  1  0  0  0  0
 22 23  1  0  0  0  0
 22 24  1  0  0  0  0
 22 25  1  0  0  0  0
 25 26  1  0  0  0  0
 26 31  2  0  0  0  0
 26 27  1  0  0  0  0
 27 28  2  0  0  0  0
 28 29  1  0  0  0  0
 29 30  2  0  0  0  0
 30 31  1  0  0  0  0
 29 32  1  0  0  0  0
 32 33  3  0  0  0  0
M  END
> <ID>
1591063

$$$$
1591064
  -OEChem-05171416412D

 33 35  0     1  0  0  0  0  0999 V2000
    6.2846   -4.9197    0.0000 C   0  0  0  0  0  0  0  0  0  0  0  0
    5.6442   -4.1516    0.0000 C   0  0  0  0  0  0  0  0  0  0  0  0
    4.8761   -4.7920    0.0000 C   0  0  0  0  0  0  0  0  0  0  0  0
    6.4123   -3.5113    0.0000 C   0  0  0  0  0  0  0  0  0  0  0  0
    5.0039   -3.3835    0.0000 O   0  0  0  0  0  0  0  0  0  0  0  0
    4.0185   -3.5540    0.0000 C   0  0  0  0  0  0  0  0  0  0  0  0
    3.6735   -4.4926    0.0000 O   0  0  0  0  0  0  0  0  0  0  0  0
    3.3782   -2.7860    0.0000 C   0  0  3  0  0  0  0  0  0  0  0  0
    2.3928   -2.9565    0.0000 C   0  0  0  0  0  0  0  0  0  0  0  0
    2.0478   -3.8951    0.0000 C   0  0  0  0  0  0  0  0  0  0  0  0
    2.6938   -4.6652    0.0000 C   0  0  0  0  0  0  0  0  0  0  0  0
    2.3488   -5.6039    0.0000 C   0  0  0  0  0  0  0  0  0  0  0  0
    1.3644   -5.7802    0.0000 C   0  0  0  0  0  0  0  0  0  0  0  0
    0.7185   -5.0100    0.0000 C   0  0  0  0  0  0  0  0  0  0  0  0
    1.0569   -4.0635    0.0000 C   0  0  0  0  0  0  0  0  0  0  0  0
    3.7232   -1.8474    0.0000 N   0  0  0  0  0  0  0  0  0  0  0  0
    2.6026   -0.5032    0.0000 C   0  0  1  0  0  0  0  0  0  0  0  0
    1.9580   -1.2678    0.0000 H   0  0  0  0  0  0  0  0  0  0  0  0
    3.4761   -0.0036    0.0000 C   0  0  2  0  0  0  0  0  0  0  0  0
    5.2002    0.2965    0.0000 H   0  0  0  0  0  0  0  0  0  0  0  0
    3.8152   -0.9444    0.0000 O   0  0  0  0  0  0  0  0  0  0  0  0
    3.4774    1.0034    0.0000 C   0  0  0  0  0  0  0  0  0  0  0  0
    3.8219    1.9422    0.0000 C   0  0  0  0  0  0  0  0  0  0  0  0
    4.4619    0.8278    0.0000 C   0  0  0  0  0  0  0  0  0  0  0  0
    2.6052    1.5109    0.0000 O   0  0  0  0  0  0  0  0  0  0  0  0
    1.7374    1.0057    0.0000 C   0  0  0  0  0  0  0  0  0  0  0  0
    0.8680    1.5138    0.0000 C   0  0  0  0  0  0  0  0  0  0  0  0
    0.0000    1.0057    0.0000 C   0  0  0  0  0  0  0  0  0  0  0  0
    0.0000    0.0000    0.0000 C   0  0  0  0  0  0  0  0  0  0  0  0
    0.8680   -0.4978    0.0000 C   0  0  0  0  0  0  0  0  0  0  0  0
    1.7360   -0.0012    0.0000 C   0  0  0  0  0  0  0  0  0  0  0  0
   -0.8653   -0.5013    0.0000 C   0  0  0  0  0  0  0  0  0  0  0  0
   -1.7306   -1.0025    0.0000 N   0  0  0  0  0  0  0  0  0  0  0  0
  1  2  1  0  0  0  0
  2  3  1  0  0  0  0
  2  4  1  0  0  0  0
  2  5  1  0  0  0  0
  5  6  1  0  0  0  0
  6  7  2  0  0  0  0
  6  8  1  0  0  0  0
  8  9  1  0  0  0  0
  9 10  1  0  0  0  0
 10 15  2  0  0  0  0
 10 11  1  0  0  0  0
 11 12  2  0  0  0  0
 12 13  1  0  0  0  0
 13 14  2  0  0  0  0
 14 15  1  0  0  0  0
  8 16  1  0  0  0  0
 16 17  1  0  0  0  0
 17 18  1  1  0  0  0
 17 31  1  0  0  0  0
 17 19  1  0  0  0  0
 19 20  1  6  0  0  0
 19 21  1  0  0  0  0
 19 22  1  0  0  0  0
 22 23  1  0  0  0  0
 22 24  1  0  0  0  0
 22 25  1  0  0  0  0
 25 26  1  0  0  0  0
 26 31  2  0  0  0  0
 26 27  1  0  0  0  0
 27 28  2  0  0  0  0
 28 29  1  0  0  0  0
 29 30  2  0  0  0  0
 30 31  1  0  0  0  0
 29 32  1  0  0  0  0
 32 33  3  0  0  0  0
M  END
> <ID>
1591064

$$$$
1591065
  -OEChem-05171416412D

 28 31  0     1  0  0  0  0  0999 V2000
    2.8582    2.7179    0.0000 C   0  0  0  0  0  0  0  0  0  0  0  0
    3.0288    1.7326    0.0000 C   0  0  0  0  0  0  0  0  0  0  0  0
    3.9703    2.0696    0.0000 C   0  0  0  0  0  0  0  0  0  0  0  0
    2.0203    1.7335    0.0000 O   0  0  0  0  0  0  0  0  0  0  0  0
    1.5098    0.8605    0.0000 C   0  0  0  0  0  0  0  0  0  0  0  0
    0.5098    0.8660    0.0000 C   0  0  0  0  0  0  0  0  0  0  0  0
    0.0000    0.0000    0.0000 C   0  0  0  0  0  0  0  0  0  0  0  0
    0.4981   -0.8737    0.0000 C   0  0  0  0  0  0  0  0  0  0  0  0
    1.5058   -0.8814    0.0000 C   0  0  0  0  0  0  0  0  0  0  0  0
    2.0078   -0.0133    0.0000 C   0  0  0  0  0  0  0  0  0  0  0  0
    3.0202   -0.0240    0.0000 C   0  0  2  0  0  0  0  0  0  0  0  0
    2.5144   -0.8867    0.0000 H   0  0  0  0  0  0  0  0  0  0  0  0
    3.5212   -0.8973    0.0000 N   0  0  0  0  0  0  0  0  0  0  0  0
    4.5328   -0.9029    0.0000 C   0  0  3  0  0  0  0  0  0  0  0  0
    5.0292   -1.7710    0.0000 C   0  0  0  0  0  0  0  0  0  0  0  0
    6.0292   -1.7751    0.0000 C   0  0  0  0  0  0  0  0  0  0  0  0
    6.5328   -0.9052    0.0000 C   0  0  0  0  0  0  0  0  0  0  0  0
    7.5329   -0.9093    0.0000 C   0  0  0  0  0  0  0  0  0  0  0  0
    8.0344   -1.7745    0.0000 C   0  0  0  0  0  0  0  0  0  0  0  0
    7.5307   -2.6444    0.0000 C   0  0  0  0  0  0  0  0  0  0  0  0
    6.5256   -2.6491    0.0000 C   0  0  0  0  0  0  0  0  0  0  0  0
    5.0414   -0.0275    0.0000 C   0  0  0  0  0  0  0  0  0  0  0  0
    6.0414   -0.0312    0.0000 O   0  0  0  0  0  0  0  0  0  0  0  0
    4.5383    0.8534    0.0000 O   0  0  0  0  0  0  0  0  0  0  0  0
    3.5288    0.8513    0.0000 C   0  0  1  0  0  0  0  0  0  0  0  0
    4.0285   -0.0149    0.0000 H   0  0  0  0  0  0  0  0  0  0  0  0
   -0.0076   -1.7364    0.0000 C   0  0  0  0  0  0  0  0  0  0  0  0
   -0.5132   -2.5992    0.0000 N   0  0  0  0  0  0  0  0  0  0  0  0
  1  2  1  0  0  0  0
  2 25  1  0  0  0  0
  2  3  1  0  0  0  0
  2  4  1  0  0  0  0
  4  5  1  0  0  0  0
  5 10  2  0  0  0  0
  5  6  1  0  0  0  0
  6  7  2  0  0  0  0
  7  8  1  0  0  0  0
  8  9  2  0  0  0  0
  9 10  1  0  0  0  0
 10 11  1  0  0  0  0
 11 12  1  6  0  0  0
 11 25  1  0  0  0  0
 11 13  1  0  0  0  0
 13 14  1  0  0  0  0
 14 15  1  0  0  0  0
 15 16  1  0  0  0  0
 16 21  2  0  0  0  0
 16 17  1  0  0  0  0
 17 18  2  0  0  0  0
 18 19  1  0  0  0  0
 19 20  2  0  0  0  0
 20 21  1  0  0  0  0
 14 22  1  0  0  0  0
 22 23  2  0  0  0  0
 22 24  1  0  0  0  0
 24 25  1  0  0  0  0
 25 26  1  1  0  0  0
  8 27  1  0  0  0  0
 27 28  3  0  0  0  0
M  END
> <ID>
1591065

$$$$
1591066
  -OEChem-05171416412D

 29 32  0     1  0  0  0  0  0999 V2000
    2.8582    2.7179    0.0000 C   0  0  0  0  0  0  0  0  0  0  0  0
    3.0288    1.7326    0.0000 C   0  0  0  0  0  0  0  0  0  0  0  0
    3.9703    2.0696    0.0000 C   0  0  0  0  0  0  0  0  0  0  0  0
    2.0203    1.7335    0.0000 O   0  0  0  0  0  0  0  0  0  0  0  0
    1.5098    0.8605    0.0000 C   0  0  0  0  0  0  0  0  0  0  0  0
    0.5098    0.8660    0.0000 C   0  0  0  0  0  0  0  0  0  0  0  0
    0.0000    0.0000    0.0000 C   0  0  0  0  0  0  0  0  0  0  0  0
    0.4981   -0.8737    0.0000 C   0  0  0  0  0  0  0  0  0  0  0  0
    1.5058   -0.8814    0.0000 C   0  0  0  0  0  0  0  0  0  0  0  0
    2.0078   -0.0133    0.0000 C   0  0  0  0  0  0  0  0  0  0  0  0
    3.0202   -0.0240    0.0000 C   0  0  1  0  0  0  0  0  0  0  0  0
    2.5144   -0.8867    0.0000 H   0  0  0  0  0  0  0  0  0  0  0  0
    3.5212   -0.8973    0.0000 N   0  0  0  0  0  0  0  0  0  0  0  0
    4.5328   -0.9029    0.0000 C   0  0  1  0  0  0  0  0  0  0  0  0
    5.4712   -1.2484    0.0000 H   0  0  0  0  0  0  0  0  0  0  0  0
    4.3546   -1.8869    0.0000 C   0  0  0  0  0  0  0  0  0  0  0  0
    5.1177   -2.5332    0.0000 C   0  0  0  0  0  0  0  0  0  0  0  0
    6.0628   -2.1910    0.0000 C   0  0  0  0  0  0  0  0  0  0  0  0
    6.8260   -2.8372    0.0000 C   0  0  0  0  0  0  0  0  0  0  0  0
    6.6536   -3.8223    0.0000 C   0  0  0  0  0  0  0  0  0  0  0  0
    5.7084   -4.1645    0.0000 C   0  0  0  0  0  0  0  0  0  0  0  0
    4.9357   -3.5217    0.0000 C   0  0  0  0  0  0  0  0  0  0  0  0
    5.0414   -0.0275    0.0000 C   0  0  0  0  0  0  0  0  0  0  0  0
    6.0414   -0.0312    0.0000 O   0  0  0  0  0  0  0  0  0  0  0  0
    4.5383    0.8534    0.0000 O   0  0  0  0  0  0  0  0  0  0  0  0
    3.5288    0.8513    0.0000 C   0  0  2  0  0  0  0  0  0  0  0  0
    4.0285   -0.0149    0.0000 H   0  0  0  0  0  0  0  0  0  0  0  0
   -0.0076   -1.7364    0.0000 C   0  0  0  0  0  0  0  0  0  0  0  0
   -0.5132   -2.5992    0.0000 N   0  0  0  0  0  0  0  0  0  0  0  0
  1  2  1  0  0  0  0
  2 26  1  0  0  0  0
  2  3  1  0  0  0  0
  2  4  1  0  0  0  0
  4  5  1  0  0  0  0
  5 10  2  0  0  0  0
  5  6  1  0  0  0  0
  6  7  2  0  0  0  0
  7  8  1  0  0  0  0
  8  9  2  0  0  0  0
  9 10  1  0  0  0  0
 10 11  1  0  0  0  0
 11 12  1  1  0  0  0
 11 26  1  0  0  0  0
 11 13  1  0  0  0  0
 13 14  1  0  0  0  0
 14 15  1  1  0  0  0
 14 16  1  0  0  0  0
 16 17  1  0  0  0  0
 17 22  2  0  0  0  0
 17 18  1  0  0  0  0
 18 19  2  0  0  0  0
 19 20  1  0  0  0  0
 20 21  2  0  0  0  0
 21 22  1  0  0  0  0
 14 23  1  0  0  0  0
 23 24  2  0  0  0  0
 23 25  1  0  0  0  0
 25 26  1  0  0  0  0
 26 27  1  6  0  0  0
  8 28  1  0  0  0  0
 28 29  3  0  0  0  0
M  END
> <ID>
1591066

$$$$
1591067
  -OEChem-05171416412D

 25 26  0     1  0  0  0  0  0999 V2000
    4.6589   -4.3221    0.0000 C   0  0  0  0  0  0  0  0  0  0  0  0
    5.0039   -3.3835    0.0000 C   0  0  0  0  0  0  0  0  0  0  0  0
    5.9892   -3.2130    0.0000 C   0  0  0  0  0  0  0  0  0  0  0  0
    4.3635   -2.6154    0.0000 C   0  0  1  0  0  0  0  0  0  0  0  0
    5.1316   -1.9751    0.0000 H   0  0  0  0  0  0  0  0  0  0  0  0
    3.5955   -3.2558    0.0000 C   0  0  0  0  0  0  0  0  0  0  0  0
    2.6569   -2.9108    0.0000 O   0  0  0  0  0  0  0  0  0  0  0  0
    3.7232   -1.8474    0.0000 N   0  0  0  0  0  0  0  0  0  0  0  0
    2.6026   -0.5032    0.0000 C   0  0  2  0  0  0  0  0  0  0  0  0
    1.9580   -1.2678    0.0000 H   0  0  0  0  0  0  0  0  0  0  0  0
    3.4761   -0.0036    0.0000 C   0  0  1  0  0  0  0  0  0  0  0  0
    5.2002    0.2965    0.0000 H   0  0  0  0  0  0  0  0  0  0  0  0
    3.8152   -0.9444    0.0000 O   0  0  0  0  0  0  0  0  0  0  0  0
    3.4774    1.0034    0.0000 C   0  0  0  0  0  0  0  0  0  0  0  0
    3.8219    1.9422    0.0000 C   0  0  0  0  0  0  0  0  0  0  0  0
    4.4619    0.8278    0.0000 C   0  0  0  0  0  0  0  0  0  0  0  0
    2.6052    1.5109    0.0000 O   0  0  0  0  0  0  0  0  0  0  0  0
    1.7374    1.0057    0.0000 C   0  0  0  0  0  0  0  0  0  0  0  0
    0.8680    1.5138    0.0000 C   0  0  0  0  0  0  0  0  0  0  0  0
    0.0000    1.0057    0.0000 C   0  0  0  0  0  0  0  0  0  0  0  0
    0.0000    0.0000    0.0000 C   0  0  0  0  0  0  0  0  0  0  0  0
    0.8680   -0.4978    0.0000 C   0  0  0  0  0  0  0  0  0  0  0  0
    1.7360   -0.0012    0.0000 C   0  0  0  0  0  0  0  0  0  0  0  0
   -0.8653   -0.5013    0.0000 C   0  0  0  0  0  0  0  0  0  0  0  0
   -1.7306   -1.0025    0.0000 N   0  0  0  0  0  0  0  0  0  0  0  0
  1  2  1  0  0  0  0
  2  3  1  0  0  0  0
  2  4  1  0  0  0  0
  4  5  1  6  0  0  0
  4  6  1  0  0  0  0
  6  7  1  0  0  0  0
  4  8  1  0  0  0  0
  8  9  1  0  0  0  0
  9 10  1  6  0  0  0
  9 23  1  0  0  0  0
  9 11  1  0  0  0  0
 11 12  1  1  0  0  0
 11 13  1  0  0  0  0
 11 14  1  0  0  0  0
 14 15  1  0  0  0  0
 14 16  1  0  0  0  0
 14 17  1  0  0  0  0
 17 18  1  0  0  0  0
 18 23  2  0  0  0  0
 18 19  1  0  0  0  0
 19 20  2  0  0  0  0
 20 21  1  0  0  0  0
 21 22  2  0  0  0  0
 22 23  1  0  0  0  0
 21 24  1  0  0  0  0
 24 25  3  0  0  0  0
M  END
> <ID>
1591067

$$$$
1591068
  -OEChem-05171416412D

 25 26  0     1  0  0  0  0  0999 V2000
    4.6589   -4.3221    0.0000 C   0  0  0  0  0  0  0  0  0  0  0  0
    5.0039   -3.3835    0.0000 C   0  0  0  0  0  0  0  0  0  0  0  0
    5.9892   -3.2130    0.0000 C   0  0  0  0  0  0  0  0  0  0  0  0
    4.3635   -2.6154    0.0000 C   0  0  1  0  0  0  0  0  0  0  0  0
    5.1316   -1.9751    0.0000 H   0  0  0  0  0  0  0  0  0  0  0  0
    3.5955   -3.2558    0.0000 C   0  0  0  0  0  0  0  0  0  0  0  0
    2.6569   -2.9108    0.0000 O   0  0  0  0  0  0  0  0  0  0  0  0
    3.7232   -1.8474    0.0000 N   0  0  0  0  0  0  0  0  0  0  0  0
    2.6026   -0.5032    0.0000 C   0  0  1  0  0  0  0  0  0  0  0  0
    1.9580   -1.2678    0.0000 H   0  0  0  0  0  0  0  0  0  0  0  0
    3.4761   -0.0036    0.0000 C   0  0  2  0  0  0  0  0  0  0  0  0
    5.2002    0.2965    0.0000 H   0  0  0  0  0  0  0  0  0  0  0  0
    3.8152   -0.9444    0.0000 O   0  0  0  0  0  0  0  0  0  0  0  0
    3.4774    1.0034    0.0000 C   0  0  0  0  0  0  0  0  0  0  0  0
    3.8219    1.9422    0.0000 C   0  0  0  0  0  0  0  0  0  0  0  0
    4.4619    0.8278    0.0000 C   0  0  0  0  0  0  0  0  0  0  0  0
    2.6052    1.5109    0.0000 O   0  0  0  0  0  0  0  0  0  0  0  0
    1.7374    1.0057    0.0000 C   0  0  0  0  0  0  0  0  0  0  0  0
    0.8680    1.5138    0.0000 C   0  0  0  0  0  0  0  0  0  0  0  0
    0.0000    1.0057    0.0000 C   0  0  0  0  0  0  0  0  0  0  0  0
    0.0000    0.0000    0.0000 C   0  0  0  0  0  0  0  0  0  0  0  0
    0.8680   -0.4978    0.0000 C   0  0  0  0  0  0  0  0  0  0  0  0
    1.7360   -0.0012    0.0000 C   0  0  0  0  0  0  0  0  0  0  0  0
   -0.8653   -0.5013    0.0000 C   0  0  0  0  0  0  0  0  0  0  0  0
   -1.7306   -1.0025    0.0000 N   0  0  0  0  0  0  0  0  0  0  0  0
  1  2  1  0  0  0  0
  2  3  1  0  0  0  0
  2  4  1  0  0  0  0
  4  5  1  6  0  0  0
  4  6  1  0  0  0  0
  6  7  1  0  0  0  0
  4  8  1  0  0  0  0
  8  9  1  0  0  0  0
  9 10  1  1  0  0  0
  9 23  1  0  0  0  0
  9 11  1  0  0  0  0
 11 12  1  6  0  0  0
 11 13  1  0  0  0  0
 11 14  1  0  0  0  0
 14 15  1  0  0  0  0
 14 16  1  0  0  0  0
 14 17  1  0  0  0  0
 17 18  1  0  0  0  0
 18 23  2  0  0  0  0
 18 19  1  0  0  0  0
 19 20  2  0  0  0  0
 20 21  1  0  0  0  0
 21 22  2  0  0  0  0
 22 23  1  0  0  0  0
 21 24  1  0  0  0  0
 24 25  3  0  0  0  0
M  END
> <ID>
1591068

$$$$
1591069
  -OEChem-05171416412D

 26 27  0     1  0  0  0  0  0999 V2000
    3.6735   -4.4926    0.0000 C   0  0  0  0  0  0  0  0  0  0  0  0
    3.0332   -3.7246    0.0000 C   0  0  0  0  0  0  0  0  0  0  0  0
    2.0478   -3.8951    0.0000 C   0  0  0  0  0  0  0  0  0  0  0  0
    3.3782   -2.7860    0.0000 C   0  0  1  0  0  0  0  0  0  0  0  0
    2.4396   -2.4409    0.0000 H   0  0  0  0  0  0  0  0  0  0  0  0
    4.3168   -3.1310    0.0000 C   0  0  0  0  0  0  0  0  0  0  0  0
    5.0849   -2.4906    0.0000 O   0  0  0  0  0  0  0  0  0  0  0  0
    3.7232   -1.8474    0.0000 N   0  0  3  0  0  0  0  0  0  0  0  0
    4.7086   -1.6768    0.0000 C   0  0  0  0  0  0  0  0  0  0  0  0
    2.6026   -0.5032    0.0000 C   0  0  1  0  0  0  0  0  0  0  0  0
    1.9580   -1.2678    0.0000 H   0  0  0  0  0  0  0  0  0  0  0  0
    3.4761   -0.0036    0.0000 C   0  0  2  0  0  0  0  0  0  0  0  0
    5.2002    0.2965    0.0000 H   0  0  0  0  0  0  0  0  0  0  0  0
    3.8152   -0.9444    0.0000 O   0  0  0  0  0  0  0  0  0  0  0  0
    3.4774    1.0034    0.0000 C   0  0  0  0  0  0  0  0  0  0  0  0
    3.8219    1.9422    0.0000 C   0  0  0  0  0  0  0  0  0  0  0  0
    4.4619    0.8278    0.0000 C   0  0  0  0  0  0  0  0  0  0  0  0
    2.6052    1.5109    0.0000 O   0  0  0  0  0  0  0  0  0  0  0  0
    1.7374    1.0057    0.0000 C   0  0  0  0  0  0  0  0  0  0  0  0
    0.8680    1.5138    0.0000 C   0  0  0  0  0  0  0  0  0  0  0  0
    0.0000    1.0057    0.0000 C   0  0  0  0  0  0  0  0  0  0  0  0
    0.0000    0.0000    0.0000 C   0  0  0  0  0  0  0  0  0  0  0  0
    0.8680   -0.4978    0.0000 C   0  0  0  0  0  0  0  0  0  0  0  0
    1.7360   -0.0012    0.0000 C   0  0  0  0  0  0  0  0  0  0  0  0
   -0.8653   -0.5013    0.0000 C   0  0  0  0  0  0  0  0  0  0  0  0
   -1.7306   -1.0025    0.0000 N   0  0  0  0  0  0  0  0  0  0  0  0
  1  2  1  0  0  0  0
  2  3  1  0  0  0  0
  2  4  1  0  0  0  0
  4  5  1  1  0  0  0
  4  6  1  0  0  0  0
  6  7  1  0  0  0  0
  4  8  1  0  0  0  0
  8  9  1  0  0  0  0
  8 10  1  0  0  0  0
 10 11  1  1  0  0  0
 10 24  1  0  0  0  0
 10 12  1  0  0  0  0
 12 13  1  6  0  0  0
 12 14  1  0  0  0  0
 12 15  1  0  0  0  0
 15 16  1  0  0  0  0
 15 17  1  0  0  0  0
 15 18  1  0  0  0  0
 18 19  1  0  0  0  0
 19 24  2  0  0  0  0
 19 20  1  0  0  0  0
 20 21  2  0  0  0  0
 21 22  1  0  0  0  0
 22 23  2  0  0  0  0
 23 24  1  0  0  0  0
 22 25  1  0  0  0  0
 25 26  3  0  0  0  0
M  END
> <ID>
1591069

$$$$
1591070
  -OEChem-05171416412D

 25 26  0     1  0  0  0  0  0999 V2000
    5.0039   -3.3835    0.0000 C   0  0  0  0  0  0  0  0  0  0  0  0
    4.0185   -3.5540    0.0000 C   0  0  0  0  0  0  0  0  0  0  0  0
    3.6735   -4.4926    0.0000 C   0  0  0  0  0  0  0  0  0  0  0  0
    3.3782   -2.7860    0.0000 C   0  0  3  0  0  0  0  0  0  0  0  0
    2.3928   -2.9565    0.0000 C   0  0  0  0  0  0  0  0  0  0  0  0
    2.0478   -3.8951    0.0000 O   0  0  0  0  0  0  0  0  0  0  0  0
    3.7232   -1.8474    0.0000 N   0  0  3  0  0  0  0  0  0  0  0  0
    4.7086   -1.6768    0.0000 C   0  0  0  0  0  0  0  0  0  0  0  0
    2.6026   -0.5032    0.0000 C   0  0  2  0  0  0  0  0  0  0  0  0
    1.9580   -1.2678    0.0000 H   0  0  0  0  0  0  0  0  0  0  0  0
    3.4761   -0.0036    0.0000 C   0  0  1  0  0  0  0  0  0  0  0  0
    5.2002    0.2965    0.0000 H   0  0  0  0  0  0  0  0  0  0  0  0
    3.8152   -0.9444    0.0000 O   0  0  0  0  0  0  0  0  0  0  0  0
    3.4774    1.0034    0.0000 C   0  0  0  0  0  0  0  0  0  0  0  0
    3.8219    1.9422    0.0000 C   0  0  0  0  0  0  0  0  0  0  0  0
    4.4619    0.8278    0.0000 C   0  0  0  0  0  0  0  0  0  0  0  0
    2.6052    1.5109    0.0000 O   0  0  0  0  0  0  0  0  0  0  0  0
    1.7374    1.0057    0.0000 C   0  0  0  0  0  0  0  0  0  0  0  0
    0.8680    1.5138    0.0000 C   0  0  0  0  0  0  0  0  0  0  0  0
    0.0000    1.0057    0.0000 C   0  0  0  0  0  0  0  0  0  0  0  0
    0.0000    0.0000    0.0000 C   0  0  0  0  0  0  0  0  0  0  0  0
    0.8680   -0.4978    0.0000 C   0  0  0  0  0  0  0  0  0  0  0  0
    1.7360   -0.0012    0.0000 C   0  0  0  0  0  0  0  0  0  0  0  0
   -0.8653   -0.5013    0.0000 C   0  0  0  0  0  0  0  0  0  0  0  0
   -1.7306   -1.0025    0.0000 N   0  0  0  0  0  0  0  0  0  0  0  0
  1  2  1  0  0  0  0
  2  3  1  0  0  0  0
  2  4  1  0  0  0  0
  4  5  1  0  0  0  0
  5  6  1  0  0  0  0
  4  7  1  0  0  0  0
  7  8  1  0  0  0  0
  7  9  1  0  0  0  0
  9 10  1  6  0  0  0
  9 23  1  0  0  0  0
  9 11  1  0  0  0  0
 11 12  1  1  0  0  0
 11 13  1  0  0  0  0
 11 14  1  0  0  0  0
 14 15  1  0  0  0  0
 14 16  1  0  0  0  0
 14 17  1  0  0  0  0
 17 18  1  0  0  0  0
 18 23  2  0  0  0  0
 18 19  1  0  0  0  0
 19 20  2  0  0  0  0
 20 21  1  0  0  0  0
 21 22  2  0  0  0  0
 22 23  1  0  0  0  0
 21 24  1  0  0  0  0
 24 25  3  0  0  0  0
M  END
> <ID>
1591070

$$$$
1591071
  -OEChem-05171416412D

 26 27  0     1  0  0  0  0  0999 V2000
    3.6735   -4.4926    0.0000 C   0  0  0  0  0  0  0  0  0  0  0  0
    3.0332   -3.7246    0.0000 C   0  0  0  0  0  0  0  0  0  0  0  0
    2.0478   -3.8951    0.0000 C   0  0  0  0  0  0  0  0  0  0  0  0
    3.3782   -2.7860    0.0000 C   0  0  1  0  0  0  0  0  0  0  0  0
    2.4396   -2.4409    0.0000 H   0  0  0  0  0  0  0  0  0  0  0  0
    4.3168   -3.1310    0.0000 C   0  0  0  0  0  0  0  0  0  0  0  0
    5.0849   -2.4906    0.0000 Cl  0  0  0  0  0  0  0  0  0  0  0  0
    3.7232   -1.8474    0.0000 N   0  0  3  0  0  0  0  0  0  0  0  0
    4.7086   -1.6768    0.0000 C   0  0  0  0  0  0  0  0  0  0  0  0
    2.6026   -0.5032    0.0000 C   0  0  1  0  0  0  0  0  0  0  0  0
    1.9580   -1.2678    0.0000 H   0  0  0  0  0  0  0  0  0  0  0  0
    3.4761   -0.0036    0.0000 C   0  0  2  0  0  0  0  0  0  0  0  0
    5.2002    0.2965    0.0000 H   0  0  0  0  0  0  0  0  0  0  0  0
    3.8152   -0.9444    0.0000 O   0  0  0  0  0  0  0  0  0  0  0  0
    3.4774    1.0034    0.0000 C   0  0  0  0  0  0  0  0  0  0  0  0
    3.8219    1.9422    0.0000 C   0  0  0  0  0  0  0  0  0  0  0  0
    4.4619    0.8278    0.0000 C   0  0  0  0  0  0  0  0  0  0  0  0
    2.6052    1.5109    0.0000 O   0  0  0  0  0  0  0  0  0  0  0  0
    1.7374    1.0057    0.0000 C   0  0  0  0  0  0  0  0  0  0  0  0
    0.8680    1.5138    0.0000 C   0  0  0  0  0  0  0  0  0  0  0  0
    0.0000    1.0057    0.0000 C   0  0  0  0  0  0  0  0  0  0  0  0
    0.0000    0.0000    0.0000 C   0  0  0  0  0  0  0  0  0  0  0  0
    0.8680   -0.4978    0.0000 C   0  0  0  0  0  0  0  0  0  0  0  0
    1.7360   -0.0012    0.0000 C   0  0  0  0  0  0  0  0  0  0  0  0
   -0.8653   -0.5013    0.0000 C   0  0  0  0  0  0  0  0  0  0  0  0
   -1.7306   -1.0025    0.0000 N   0  0  0  0  0  0  0  0  0  0  0  0
  1  2  1  0  0  0  0
  2  3  1  0  0  0  0
  2  4  1  0  0  0  0
  4  5  1  1  0  0  0
  4  6  1  0  0  0  0
  6  7  1  0  0  0  0
  4  8  1  0  0  0  0
  8  9  1  0  0  0  0
  8 10  1  0  0  0  0
 10 11  1  1  0  0  0
 10 24  1  0  0  0  0
 10 12  1  0  0  0  0
 12 13  1  6  0  0  0
 12 14  1  0  0  0  0
 12 15  1  0  0  0  0
 15 16  1  0  0  0  0
 15 17  1  0  0  0  0
 15 18  1  0  0  0  0
 18 19  1  0  0  0  0
 19 24  2  0  0  0  0
 19 20  1  0  0  0  0
 20 21  2  0  0  0  0
 21 22  1  0  0  0  0
 22 23  2  0  0  0  0
 23 24  1  0  0  0  0
 22 25  1  0  0  0  0
 25 26  3  0  0  0  0
M  END
> <ID>
1591071

$$$$
1591072
  -OEChem-05171416412D

 26 27  0     1  0  0  0  0  0999 V2000
    3.6735   -4.4926    0.0000 C   0  0  0  0  0  0  0  0  0  0  0  0
    3.0332   -3.7246    0.0000 C   0  0  0  0  0  0  0  0  0  0  0  0
    2.0478   -3.8951    0.0000 C   0  0  0  0  0  0  0  0  0  0  0  0
    3.3782   -2.7860    0.0000 C   0  0  1  0  0  0  0  0  0  0  0  0
    2.4396   -2.4409    0.0000 H   0  0  0  0  0  0  0  0  0  0  0  0
    4.3168   -3.1310    0.0000 C   0  0  0  0  0  0  0  0  0  0  0  0
    5.0849   -2.4906    0.0000 Cl  0  0  0  0  0  0  0  0  0  0  0  0
    3.7232   -1.8474    0.0000 N   0  0  3  0  0  0  0  0  0  0  0  0
    4.7086   -1.6768    0.0000 C   0  0  0  0  0  0  0  0  0  0  0  0
    2.6026   -0.5032    0.0000 C   0  0  2  0  0  0  0  0  0  0  0  0
    1.9580   -1.2678    0.0000 H   0  0  0  0  0  0  0  0  0  0  0  0
    3.4761   -0.0036    0.0000 C   0  0  1  0  0  0  0  0  0  0  0  0
    5.2002    0.2965    0.0000 H   0  0  0  0  0  0  0  0  0  0  0  0
    3.8152   -0.9444    0.0000 O   0  0  0  0  0  0  0  0  0  0  0  0
    3.4774    1.0034    0.0000 C   0  0  0  0  0  0  0  0  0  0  0  0
    3.8219    1.9422    0.0000 C   0  0  0  0  0  0  0  0  0  0  0  0
    4.4619    0.8278    0.0000 C   0  0  0  0  0  0  0  0  0  0  0  0
    2.6052    1.5109    0.0000 O   0  0  0  0  0  0  0  0  0  0  0  0
    1.7374    1.0057    0.0000 C   0  0  0  0  0  0  0  0  0  0  0  0
    0.8680    1.5138    0.0000 C   0  0  0  0  0  0  0  0  0  0  0  0
    0.0000    1.0057    0.0000 C   0  0  0  0  0  0  0  0  0  0  0  0
    0.0000    0.0000    0.0000 C   0  0  0  0  0  0  0  0  0  0  0  0
    0.8680   -0.4978    0.0000 C   0  0  0  0  0  0  0  0  0  0  0  0
    1.7360   -0.0012    0.0000 C   0  0  0  0  0  0  0  0  0  0  0  0
   -0.8653   -0.5013    0.0000 C   0  0  0  0  0  0  0  0  0  0  0  0
   -1.7306   -1.0025    0.0000 N   0  0  0  0  0  0  0  0  0  0  0  0
  1  2  1  0  0  0  0
  2  3  1  0  0  0  0
  2  4  1  0  0  0  0
  4  5  1  1  0  0  0
  4  6  1  0  0  0  0
  6  7  1  0  0  0  0
  4  8  1  0  0  0  0
  8  9  1  0  0  0  0
  8 10  1  0  0  0  0
 10 11  1  6  0  0  0
 10 24  1  0  0  0  0
 10 12  1  0  0  0  0
 12 13  1  1  0  0  0
 12 14  1  0  0  0  0
 12 15  1  0  0  0  0
 15 16  1  0  0  0  0
 15 17  1  0  0  0  0
 15 18  1  0  0  0  0
 18 19  1  0  0  0  0
 19 24  2  0  0  0  0
 19 20  1  0  0  0  0
 20 21  2  0  0  0  0
 21 22  1  0  0  0  0
 22 23  2  0  0  0  0
 23 24  1  0  0  0  0
 22 25  1  0  0  0  0
 25 26  3  0  0  0  0
M  END
> <ID>
1591072

$$$$
1591073
  -OEChem-05171416412D

 26 27  0     1  0  0  0  0  0999 V2000
    5.9892   -3.2130    0.0000 C   0  0  0  0  0  0  0  0  0  0  0  0
    5.0039   -3.3835    0.0000 C   0  0  0  0  0  0  0  0  0  0  0  0
    4.6589   -4.3221    0.0000 C   0  0  0  0  0  0  0  0  0  0  0  0
    4.3635   -2.6154    0.0000 C   0  0  2  0  0  0  0  0  0  0  0  0
    5.1316   -1.9751    0.0000 H   0  0  0  0  0  0  0  0  0  0  0  0
    3.7232   -1.8474    0.0000 N   0  0  0  0  0  0  0  0  0  0  0  0
    2.6026   -0.5032    0.0000 C   0  0  2  0  0  0  0  0  0  0  0  0
    1.9580   -1.2678    0.0000 H   0  0  0  0  0  0  0  0  0  0  0  0
    3.4761   -0.0036    0.0000 C   0  0  1  0  0  0  0  0  0  0  0  0
    5.2002    0.2965    0.0000 H   0  0  0  0  0  0  0  0  0  0  0  0
    3.8152   -0.9444    0.0000 O   0  0  0  0  0  0  0  0  0  0  0  0
    3.4774    1.0034    0.0000 C   0  0  0  0  0  0  0  0  0  0  0  0
    3.8219    1.9422    0.0000 C   0  0  0  0  0  0  0  0  0  0  0  0
    4.4619    0.8278    0.0000 C   0  0  0  0  0  0  0  0  0  0  0  0
    2.6052    1.5109    0.0000 O   0  0  0  0  0  0  0  0  0  0  0  0
    1.7374    1.0057    0.0000 C   0  0  0  0  0  0  0  0  0  0  0  0
    0.8680    1.5138    0.0000 C   0  0  0  0  0  0  0  0  0  0  0  0
    0.0000    1.0057    0.0000 C   0  0  0  0  0  0  0  0  0  0  0  0
    0.0000    0.0000    0.0000 C   0  0  0  0  0  0  0  0  0  0  0  0
    0.8680   -0.4978    0.0000 C   0  0  0  0  0  0  0  0  0  0  0  0
    1.7360   -0.0012    0.0000 C   0  0  0  0  0  0  0  0  0  0  0  0
   -0.8653   -0.5013    0.0000 C   0  0  0  0  0  0  0  0  0  0  0  0
   -1.7306   -1.0025    0.0000 N   0  0  0  0  0  0  0  0  0  0  0  0
    3.5955   -3.2558    0.0000 C   0  0  0  0  0  0  0  0  0  0  0  0
    2.6569   -2.9108    0.0000 O   0  0  0  0  0  0  0  0  0  0  0  0
    3.7660   -4.2411    0.0000 O   0  0  0  0  0  0  0  0  0  0  0  0
  1  2  1  0  0  0  0
  2  3  1  0  0  0  0
  2  4  1  0  0  0  0
  4  5  1  6  0  0  0
  4  6  1  0  0  0  0
  6  7  1  0  0  0  0
  7  8  1  6  0  0  0
  7 21  1  0  0  0  0
  7  9  1  0  0  0  0
  9 10  1  1  0  0  0
  9 11  1  0  0  0  0
  9 12  1  0  0  0  0
 12 13  1  0  0  0  0
 12 14  1  0  0  0  0
 12 15  1  0  0  0  0
 15 16  1  0  0  0  0
 16 21  2  0  0  0  0
 16 17  1  0  0  0  0
 17 18  2  0  0  0  0
 18 19  1  0  0  0  0
 19 20  2  0  0  0  0
 20 21  1  0  0  0  0
 19 22  1  0  0  0  0
 22 23  3  0  0  0  0
  4 24  1  0  0  0  0
 24 25  2  0  0  0  0
 24 26  1  0  0  0  0
M  END
> <ID>
1591073

$$$$
1591074
  -OEChem-05171416412D

 26 27  0     1  0  0  0  0  0999 V2000
    5.9892   -3.2130    0.0000 C   0  0  0  0  0  0  0  0  0  0  0  0
    5.0039   -3.3835    0.0000 C   0  0  0  0  0  0  0  0  0  0  0  0
    4.6589   -4.3221    0.0000 C   0  0  0  0  0  0  0  0  0  0  0  0
    4.3635   -2.6154    0.0000 C   0  0  2  0  0  0  0  0  0  0  0  0
    5.1316   -1.9751    0.0000 H   0  0  0  0  0  0  0  0  0  0  0  0
    3.7232   -1.8474    0.0000 N   0  0  0  0  0  0  0  0  0  0  0  0
    2.6026   -0.5032    0.0000 C   0  0  1  0  0  0  0  0  0  0  0  0
    1.9580   -1.2678    0.0000 H   0  0  0  0  0  0  0  0  0  0  0  0
    3.4761   -0.0036    0.0000 C   0  0  2  0  0  0  0  0  0  0  0  0
    5.2002    0.2965    0.0000 H   0  0  0  0  0  0  0  0  0  0  0  0
    3.8152   -0.9444    0.0000 O   0  0  0  0  0  0  0  0  0  0  0  0
    3.4774    1.0034    0.0000 C   0  0  0  0  0  0  0  0  0  0  0  0
    3.8219    1.9422    0.0000 C   0  0  0  0  0  0  0  0  0  0  0  0
    4.4619    0.8278    0.0000 C   0  0  0  0  0  0  0  0  0  0  0  0
    2.6052    1.5109    0.0000 O   0  0  0  0  0  0  0  0  0  0  0  0
    1.7374    1.0057    0.0000 C   0  0  0  0  0  0  0  0  0  0  0  0
    0.8680    1.5138    0.0000 C   0  0  0  0  0  0  0  0  0  0  0  0
    0.0000    1.0057    0.0000 C   0  0  0  0  0  0  0  0  0  0  0  0
    0.0000    0.0000    0.0000 C   0  0  0  0  0  0  0  0  0  0  0  0
    0.8680   -0.4978    0.0000 C   0  0  0  0  0  0  0  0  0  0  0  0
    1.7360   -0.0012    0.0000 C   0  0  0  0  0  0  0  0  0  0  0  0
   -0.8653   -0.5013    0.0000 C   0  0  0  0  0  0  0  0  0  0  0  0
   -1.7306   -1.0025    0.0000 N   0  0  0  0  0  0  0  0  0  0  0  0
    3.5955   -3.2558    0.0000 C   0  0  0  0  0  0  0  0  0  0  0  0
    2.6569   -2.9108    0.0000 O   0  0  0  0  0  0  0  0  0  0  0  0
    3.7660   -4.2411    0.0000 O   0  0  0  0  0  0  0  0  0  0  0  0
  1  2  1  0  0  0  0
  2  3  1  0  0  0  0
  2  4  1  0  0  0  0
  4  5  1  6  0  0  0
  4  6  1  0  0  0  0
  6  7  1  0  0  0  0
  7  8  1  1  0  0  0
  7 21  1  0  0  0  0
  7  9  1  0  0  0  0
  9 10  1  6  0  0  0
  9 11  1  0  0  0  0
  9 12  1  0  0  0  0
 12 13  1  0  0  0  0
 12 14  1  0  0  0  0
 12 15  1  0  0  0  0
 15 16  1  0  0  0  0
 16 21  2  0  0  0  0
 16 17  1  0  0  0  0
 17 18  2  0  0  0  0
 18 19  1  0  0  0  0
 19 20  2  0  0  0  0
 20 21  1  0  0  0  0
 19 22  1  0  0  0  0
 22 23  3  0  0  0  0
  4 24  1  0  0  0  0
 24 25  2  0  0  0  0
 24 26  1  0  0  0  0
M  END
> <ID>
1591074

$$$$
1591075
  -OEChem-05171416412D

 28 29  0     1  0  0  0  0  0999 V2000
    2.0780   -2.6769    0.0000 C   0  0  0  0  0  0  0  0  0  0  0  0
    1.3135   -2.0323    0.0000 C   0  0  2  0  0  0  0  0  0  0  0  0
    0.5489   -1.3878    0.0000 H   0  0  0  0  0  0  0  0  0  0  0  0
    1.9580   -1.2678    0.0000 N   0  0  0  0  0  0  0  0  0  0  0  0
    2.6026   -0.5032    0.0000 C   0  0  1  0  0  0  0  0  0  0  0  0
    3.7232   -1.8474    0.0000 H   0  0  0  0  0  0  0  0  0  0  0  0
    3.4761   -0.0036    0.0000 C   0  0  2  0  0  0  0  0  0  0  0  0
    5.2002    0.2965    0.0000 H   0  0  0  0  0  0  0  0  0  0  0  0
    3.8152   -0.9444    0.0000 O   0  0  0  0  0  0  0  0  0  0  0  0
    3.4774    1.0034    0.0000 C   0  0  0  0  0  0  0  0  0  0  0  0
    3.8219    1.9422    0.0000 C   0  0  0  0  0  0  0  0  0  0  0  0
    4.4619    0.8278    0.0000 C   0  0  0  0  0  0  0  0  0  0  0  0
    2.6052    1.5109    0.0000 O   0  0  0  0  0  0  0  0  0  0  0  0
    1.7374    1.0057    0.0000 C   0  0  0  0  0  0  0  0  0  0  0  0
    0.8680    1.5138    0.0000 C   0  0  0  0  0  0  0  0  0  0  0  0
    0.0000    1.0057    0.0000 C   0  0  0  0  0  0  0  0  0  0  0  0
    0.0000    0.0000    0.0000 C   0  0  0  0  0  0  0  0  0  0  0  0
    0.8680   -0.4978    0.0000 C   0  0  0  0  0  0  0  0  0  0  0  0
    1.7360   -0.0012    0.0000 C   0  0  0  0  0  0  0  0  0  0  0  0
   -0.8653   -0.5013    0.0000 C   0  0  0  0  0  0  0  0  0  0  0  0
   -1.7306   -1.0025    0.0000 N   0  0  0  0  0  0  0  0  0  0  0  0
    0.6689   -2.7969    0.0000 C   0  0  0  0  0  0  0  0  0  0  0  0
    1.0088   -3.7373    0.0000 O   0  0  0  0  0  0  0  0  0  0  0  0
   -0.3155   -2.6209    0.0000 O   0  0  0  0  0  0  0  0  0  0  0  0
   -0.9600   -3.3855    0.0000 C   0  0  0  0  0  0  0  0  0  0  0  0
   -1.7246   -2.7409    0.0000 C   0  0  0  0  0  0  0  0  0  0  0  0
   -0.1955   -4.0301    0.0000 C   0  0  0  0  0  0  0  0  0  0  0  0
   -1.6046   -4.1500    0.0000 C   0  0  0  0  0  0  0  0  0  0  0  0
  1  2  1  0  0  0  0
  2  3  1  6  0  0  0
  2  4  1  0  0  0  0
  4  5  1  0  0  0  0
  5  6  1  1  0  0  0
  5 19  1  0  0  0  0
  5  7  1  0  0  0  0
  7  8  1  6  0  0  0
  7  9  1  0  0  0  0
  7 10  1  0  0  0  0
 10 11  1  0  0  0  0
 10 12  1  0  0  0  0
 10 13  1  0  0  0  0
 13 14  1  0  0  0  0
 14 19  2  0  0  0  0
 14 15  1  0  0  0  0
 15 16  2  0  0  0  0
 16 17  1  0  0  0  0
 17 18  2  0  0  0  0
 18 19  1  0  0  0  0
 17 20  1  0  0  0  0
 20 21  3  0  0  0  0
  2 22  1  0  0  0  0
 22 23  2  0  0  0  0
 22 24  1  0  0  0  0
 24 25  1  0  0  0  0
 25 26  1  0  0  0  0
 25 27  1  0  0  0  0
 25 28  1  0  0  0  0
M  END
> <ID>
1591075

$$$$
1591076
  -OEChem-05171416412D

 27 28  0     1  0  0  0  0  0999 V2000
    6.0600   -3.5063    0.0000 C   0  0  0  0  0  0  0  0  0  0  0  0
    6.0615   -2.5063    0.0000 C   0  0  0  0  0  0  0  0  0  0  0  0
    5.1962   -2.0050    0.0000 N   0  0  0  0  0  0  0  0  0  0  0  0
    4.3294   -2.5038    0.0000 C   0  0  0  0  0  0  0  0  0  0  0  0
    4.3280   -3.5038    0.0000 C   0  0  0  0  0  0  0  0  0  0  0  0
    5.1976   -1.0050    0.0000 C   0  0  0  0  0  0  0  0  0  0  0  0
    4.3323   -0.5038    0.0000 C   0  0  1  0  0  0  0  0  0  0  0  0
    3.8311   -1.3691    0.0000 H   0  0  0  0  0  0  0  0  0  0  0  0
    4.8336    0.3615    0.0000 O   0  0  0  0  0  0  0  0  0  0  0  0
    3.4670   -0.0025    0.0000 C   0  0  0  0  0  0  0  0  0  0  0  0
    2.6003   -0.5013    0.0000 O   0  0  0  0  0  0  0  0  0  0  0  0
    1.7350    0.0000    0.0000 C   0  0  0  0  0  0  0  0  0  0  0  0
    0.8675   -0.4975    0.0000 C   0  0  0  0  0  0  0  0  0  0  0  0
    0.0000    0.0000    0.0000 C   0  0  0  0  0  0  0  0  0  0  0  0
   -0.0000    1.0052    0.0000 C   0  0  0  0  0  0  0  0  0  0  0  0
    0.8675    1.5129    0.0000 C   0  0  0  0  0  0  0  0  0  0  0  0
    1.7350    1.0052    0.0000 C   0  0  0  0  0  0  0  0  0  0  0  0
    2.6025    1.5026    0.0000 C   0  0  0  0  0  0  0  0  0  0  0  0
    3.4670    1.0001    0.0000 O   0  0  0  0  0  0  0  0  0  0  0  0
    2.6054    2.5026    0.0000 C   0  0  0  0  0  0  0  0  0  0  0  0
    3.4729    3.0001    0.0000 C   0  0  0  0  0  0  0  0  0  0  0  0
    3.4759    4.0001    0.0000 C   0  0  0  0  0  0  0  0  0  0  0  0
    2.6054    4.5027    0.0000 C   0  0  0  0  0  0  0  0  0  0  0  0
    2.6083    5.5027    0.0000 C   0  0  0  0  0  0  0  0  0  0  0  0
    3.4729    6.0052    0.0000 C   0  0  0  0  0  0  0  0  0  0  0  0
    4.3434    5.5026    0.0000 C   0  0  0  0  0  0  0  0  0  0  0  0
    4.3493    4.4975    0.0000 C   0  0  0  0  0  0  0  0  0  0  0  0
  1  2  1  0  0  0  0
  2  3  1  0  0  0  0
  3  4  1  0  0  0  0
  4  5  1  0  0  0  0
  3  6  1  0  0  0  0
  6  7  1  0  0  0  0
  7  8  1  1  0  0  0
  7  9  1  0  0  0  0
  7 10  1  0  0  0  0
 10 11  1  0  0  0  0
 11 12  1  0  0  0  0
 12 17  2  0  0  0  0
 12 13  1  0  0  0  0
 13 14  2  0  0  0  0
 14 15  1  0  0  0  0
 15 16  2  0  0  0  0
 16 17  1  0  0  0  0
 17 18  1  0  0  0  0
 18 19  2  0  0  0  0
 18 20  1  0  0  0  0
 20 21  1  0  0  0  0
 21 22  1  0  0  0  0
 22 27  2  0  0  0  0
 22 23  1  0  0  0  0
 23 24  2  0  0  0  0
 24 25  1  0  0  0  0
 25 26  2  0  0  0  0
 26 27  1  0  0  0  0
M  END
> <ID>
1591076

$$$$
1591077
  -OEChem-05171416412D

 28 30  0     1  0  0  0  0  0999 V2000
    0.3660    4.3764    0.0000 O   0  0  0  0  0  0  0  0  0  0  0  0
    0.8660    3.5104    0.0000 C   0  0  1  0  0  0  0  0  0  0  0  0
    1.3660    2.6444    0.0000 H   0  0  0  0  0  0  0  0  0  0  0  0
    1.7321    4.0104    0.0000 C   0  0  0  0  0  0  0  0  0  0  0  0
    1.7321    5.0104    0.0000 O   0  0  0  0  0  0  0  0  0  0  0  0
    2.5981    5.5104    0.0000 C   0  0  0  0  0  0  0  0  0  0  0  0
    2.5995    6.5104    0.0000 C   0  0  0  0  0  0  0  0  0  0  0  0
    3.4634    7.0142    0.0000 C   0  0  0  0  0  0  0  0  0  0  0  0
    4.3347    6.5129    0.0000 C   0  0  0  0  0  0  0  0  0  0  0  0
    4.3420    5.5078    0.0000 C   0  0  0  0  0  0  0  0  0  0  0  0
    3.4693    5.0091    0.0000 C   0  0  0  0  0  0  0  0  0  0  0  0
    3.4678    4.0091    0.0000 C   0  0  0  0  0  0  0  0  0  0  0  0
    2.6011    3.5104    0.0000 O   0  0  0  0  0  0  0  0  0  0  0  0
    4.3331    3.5078    0.0000 C   0  0  0  0  0  0  0  0  0  0  0  0
    4.3316    2.5078    0.0000 C   0  0  0  0  0  0  0  0  0  0  0  0
    5.1969    2.0065    0.0000 C   0  0  0  0  0  0  0  0  0  0  0  0
    6.0667    2.5103    0.0000 C   0  0  0  0  0  0  0  0  0  0  0  0
    6.9320    2.0091    0.0000 C   0  0  0  0  0  0  0  0  0  0  0  0
    6.9364    1.0090    0.0000 C   0  0  0  0  0  0  0  0  0  0  0  0
    6.0666    0.5052    0.0000 C   0  0  0  0  0  0  0  0  0  0  0  0
    5.1924    1.0013    0.0000 C   0  0  0  0  0  0  0  0  0  0  0  0
   -0.0000    3.0104    0.0000 C   0  0  0  0  0  0  0  0  0  0  0  0
   -0.0000    2.0104    0.0000 N   0  0  0  0  0  0  0  0  0  0  0  0
   -0.8675    1.5027    0.0000 C   0  0  0  0  0  0  0  0  0  0  0  0
   -0.8675    0.4975    0.0000 C   0  0  0  0  0  0  0  0  0  0  0  0
    0.0000    0.0000    0.0000 C   0  0  0  0  0  0  0  0  0  0  0  0
    0.8675    0.4975    0.0000 C   0  0  0  0  0  0  0  0  0  0  0  0
    0.8675    1.5027    0.0000 C   0  0  0  0  0  0  0  0  0  0  0  0
  1  2  1  0  0  0  0
  2  3  1  6  0  0  0
  2  4  1  0  0  0  0
  4  5  1  0  0  0  0
  5  6  1  0  0  0  0
  6 11  2  0  0  0  0
  6  7  1  0  0  0  0
  7  8  2  0  0  0  0
  8  9  1  0  0  0  0
  9 10  2  0  0  0  0
 10 11  1  0  0  0  0
 11 12  1  0  0  0  0
 12 13  2  0  0  0  0
 12 14  1  0  0  0  0
 14 15  1  0  0  0  0
 15 16  1  0  0  0  0
 16 21  2  0  0  0  0
 16 17  1  0  0  0  0
 17 18  2  0  0  0  0
 18 19  1  0  0  0  0
 19 20  2  0  0  0  0
 20 21  1  0  0  0  0
  2 22  1  0  0  0  0
 22 23  1  0  0  0  0
 23 28  1  0  0  0  0
 23 24  1  0  0  0  0
 24 25  1  0  0  0  0
 25 26  1  0  0  0  0
 26 27  1  0  0  0  0
 27 28  1  0  0  0  0
M  END
> <ID>
1591077

$$$$
1591078
  -OEChem-05171416412D

 29 30  0     1  0  0  0  0  0999 V2000
    4.3280   -3.5038    0.0000 C   0  0  0  0  0  0  0  0  0  0  0  0
    4.3294   -2.5038    0.0000 C   0  0  0  0  0  0  0  0  0  0  0  0
    3.4641   -2.0025    0.0000 C   0  0  0  0  0  0  0  0  0  0  0  0
    5.1962   -2.0050    0.0000 N   0  0  0  0  0  0  0  0  0  0  0  0
    5.1976   -1.0050    0.0000 C   0  0  0  0  0  0  0  0  0  0  0  0
    4.3323   -0.5038    0.0000 C   0  0  1  0  0  0  0  0  0  0  0  0
    3.8311   -1.3691    0.0000 H   0  0  0  0  0  0  0  0  0  0  0  0
    4.8336    0.3615    0.0000 O   0  0  0  0  0  0  0  0  0  0  0  0
    3.4670   -0.0025    0.0000 C   0  0  0  0  0  0  0  0  0  0  0  0
    2.6003   -0.5013    0.0000 O   0  0  0  0  0  0  0  0  0  0  0  0
    1.7350    0.0000    0.0000 C   0  0  0  0  0  0  0  0  0  0  0  0
    0.8675   -0.4975    0.0000 C   0  0  0  0  0  0  0  0  0  0  0  0
    0.0000    0.0000    0.0000 C   0  0  0  0  0  0  0  0  0  0  0  0
   -0.0000    1.0052    0.0000 C   0  0  0  0  0  0  0  0  0  0  0  0
    0.8675    1.5129    0.0000 C   0  0  0  0  0  0  0  0  0  0  0  0
    1.7350    1.0052    0.0000 C   0  0  0  0  0  0  0  0  0  0  0  0
    2.6025    1.5026    0.0000 C   0  0  0  0  0  0  0  0  0  0  0  0
    3.4670    1.0001    0.0000 O   0  0  0  0  0  0  0  0  0  0  0  0
    2.6054    2.5026    0.0000 C   0  0  0  0  0  0  0  0  0  0  0  0
    3.4729    3.0001    0.0000 C   0  0  0  0  0  0  0  0  0  0  0  0
    3.4759    4.0001    0.0000 C   0  0  0  0  0  0  0  0  0  0  0  0
    2.6054    4.5027    0.0000 C   0  0  0  0  0  0  0  0  0  0  0  0
    2.6083    5.5027    0.0000 C   0  0  0  0  0  0  0  0  0  0  0  0
    3.4729    6.0052    0.0000 C   0  0  0  0  0  0  0  0  0  0  0  0
    4.3434    5.5026    0.0000 C   0  0  0  0  0  0  0  0  0  0  0  0
    4.3493    4.4975    0.0000 C   0  0  0  0  0  0  0  0  0  0  0  0
    6.0615   -2.5063    0.0000 C   0  0  0  0  0  0  0  0  0  0  0  0
    6.9282   -2.0075    0.0000 C   0  0  0  0  0  0  0  0  0  0  0  0
    6.0600   -3.5063    0.0000 C   0  0  0  0  0  0  0  0  0  0  0  0
  1  2  1  0  0  0  0
  2  3  1  0  0  0  0
  2  4  1  0  0  0  0
  4  5  1  0  0  0  0
  5  6  1  0  0  0  0
  6  7  1  1  0  0  0
  6  8  1  0  0  0  0
  6  9  1  0  0  0  0
  9 10  1  0  0  0  0
 10 11  1  0  0  0  0
 11 16  2  0  0  0  0
 11 12  1  0  0  0  0
 12 13  2  0  0  0  0
 13 14  1  0  0  0  0
 14 15  2  0  0  0  0
 15 16  1  0  0  0  0
 16 17  1  0  0  0  0
 17 18  2  0  0  0  0
 17 19  1  0  0  0  0
 19 20  1  0  0  0  0
 20 21  1  0  0  0  0
 21 26  2  0  0  0  0
 21 22  1  0  0  0  0
 22 23  2  0  0  0  0
 23 24  1  0  0  0  0
 24 25  2  0  0  0  0
 25 26  1  0  0  0  0
  4 27  1  0  0  0  0
 27 28  1  0  0  0  0
 27 29  1  0  0  0  0
M  END
> <ID>
1591078

$$$$
1591079
  -OEChem-05171416412D

 22 23  0     1  0  0  0  0  0999 V2000
   -0.0037    7.0117    0.0000 C   0  0  0  0  0  0  0  0  0  0  0  0
    0.8631    6.5130    0.0000 C   0  0  0  0  0  0  0  0  0  0  0  0
    1.7283    7.0143    0.0000 C   0  0  0  0  0  0  0  0  0  0  0  0
    1.7268    8.0143    0.0000 O   0  0  0  0  0  0  0  0  0  0  0  0
    2.5951    6.5156    0.0000 C   0  0  0  0  0  0  0  0  0  0  0  0
    3.4611    7.0157    0.0000 C   0  0  0  0  0  0  0  0  0  0  0  0
    4.3301    6.5207    0.0000 C   0  0  0  0  0  0  0  0  0  0  0  0
    4.3331    5.5155    0.0000 C   0  0  0  0  0  0  0  0  0  0  0  0
    3.4671    5.0053    0.0000 C   0  0  0  0  0  0  0  0  0  0  0  0
    2.5981    5.5104    0.0000 C   0  0  0  0  0  0  0  0  0  0  0  0
    1.7321    5.0104    0.0000 O   0  0  0  0  0  0  0  0  0  0  0  0
    1.7321    4.0104    0.0000 C   0  0  0  0  0  0  0  0  0  0  0  0
    0.8660    3.5104    0.0000 C   0  0  2  0  0  0  0  0  0  0  0  0
    1.3660    2.6444    0.0000 H   0  0  0  0  0  0  0  0  0  0  0  0
    0.3660    4.3764    0.0000 O   0  0  0  0  0  0  0  0  0  0  0  0
   -0.0000    3.0104    0.0000 C   0  0  0  0  0  0  0  0  0  0  0  0
   -0.0000    2.0104    0.0000 N   0  0  0  0  0  0  0  0  0  0  0  0
   -0.8675    1.5027    0.0000 C   0  0  0  0  0  0  0  0  0  0  0  0
   -0.8675    0.4975    0.0000 C   0  0  0  0  0  0  0  0  0  0  0  0
    0.0000    0.0000    0.0000 C   0  0  0  0  0  0  0  0  0  0  0  0
    0.8675    0.4975    0.0000 C   0  0  0  0  0  0  0  0  0  0  0  0
    0.8675    1.5027    0.0000 C   0  0  0  0  0  0  0  0  0  0  0  0
  1  2  1  0  0  0  0
  2  3  1  0  0  0  0
  3  4  2  0  0  0  0
  3  5  1  0  0  0  0
  5 10  2  0  0  0  0
  5  6  1  0  0  0  0
  6  7  2  0  0  0  0
  7  8  1  0  0  0  0
  8  9  2  0  0  0  0
  9 10  1  0  0  0  0
 10 11  1  0  0  0  0
 11 12  1  0  0  0  0
 12 13  1  0  0  0  0
 13 14  1  6  0  0  0
 13 15  1  0  0  0  0
 13 16  1  0  0  0  0
 16 17  1  0  0  0  0
 17 22  1  0  0  0  0
 17 18  1  0  0  0  0
 18 19  1  0  0  0  0
 19 20  1  0  0  0  0
 20 21  1  0  0  0  0
 21 22  1  0  0  0  0
M  END
> <ID>
1591079

$$$$
1591080
  -OEChem-05171416412D

 21 22  0     1  0  0  0  0  0999 V2000
    1.7268    8.0143    0.0000 C   0  0  0  0  0  0  0  0  0  0  0  0
    1.7283    7.0143    0.0000 C   0  0  0  0  0  0  0  0  0  0  0  0
    0.8631    6.5130    0.0000 O   0  0  0  0  0  0  0  0  0  0  0  0
    2.5951    6.5156    0.0000 C   0  0  0  0  0  0  0  0  0  0  0  0
    3.4611    7.0157    0.0000 C   0  0  0  0  0  0  0  0  0  0  0  0
    4.3301    6.5207    0.0000 C   0  0  0  0  0  0  0  0  0  0  0  0
    4.3331    5.5155    0.0000 C   0  0  0  0  0  0  0  0  0  0  0  0
    3.4671    5.0053    0.0000 C   0  0  0  0  0  0  0  0  0  0  0  0
    2.5981    5.5104    0.0000 C   0  0  0  0  0  0  0  0  0  0  0  0
    1.7321    5.0104    0.0000 O   0  0  0  0  0  0  0  0  0  0  0  0
    1.7321    4.0104    0.0000 C   0  0  0  0  0  0  0  0  0  0  0  0
    0.8660    3.5104    0.0000 C   0  0  2  0  0  0  0  0  0  0  0  0
    1.3660    2.6444    0.0000 H   0  0  0  0  0  0  0  0  0  0  0  0
    0.3660    4.3764    0.0000 O   0  0  0  0  0  0  0  0  0  0  0  0
   -0.0000    3.0104    0.0000 C   0  0  0  0  0  0  0  0  0  0  0  0
   -0.0000    2.0104    0.0000 N   0  0  0  0  0  0  0  0  0  0  0  0
   -0.8675    1.5027    0.0000 C   0  0  0  0  0  0  0  0  0  0  0  0
   -0.8675    0.4975    0.0000 C   0  0  0  0  0  0  0  0  0  0  0  0
    0.0000    0.0000    0.0000 C   0  0  0  0  0  0  0  0  0  0  0  0
    0.8675    0.4975    0.0000 C   0  0  0  0  0  0  0  0  0  0  0  0
    0.8675    1.5027    0.0000 C   0  0  0  0  0  0  0  0  0  0  0  0
  1  2  1  0  0  0  0
  2  3  2  0  0  0  0
  2  4  1  0  0  0  0
  4  9  2  0  0  0  0
  4  5  1  0  0  0  0
  5  6  2  0  0  0  0
  6  7  1  0  0  0  0
  7  8  2  0  0  0  0
  8  9  1  0  0  0  0
  9 10  1  0  0  0  0
 10 11  1  0  0  0  0
 11 12  1  0  0  0  0
 12 13  1  6  0  0  0
 12 14  1  0  0  0  0
 12 15  1  0  0  0  0
 15 16  1  0  0  0  0
 16 21  1  0  0  0  0
 16 17  1  0  0  0  0
 17 18  1  0  0  0  0
 18 19  1  0  0  0  0
 19 20  1  0  0  0  0
 20 21  1  0  0  0  0
M  END
> <ID>
1591080

$$$$
1591081
  -OEChem-05171416412D

 34 37  0     1  0  0  0  0  0999 V2000
    1.2334    3.8786    0.0000 O   0  0  0  0  0  0  0  0  0  0  0  0
    1.7334    3.0126    0.0000 C   0  0  1  0  0  0  0  0  0  0  0  0
    2.2334    2.1466    0.0000 H   0  0  0  0  0  0  0  0  0  0  0  0
    2.5995    3.5126    0.0000 C   0  0  0  0  0  0  0  0  0  0  0  0
    2.5995    4.5126    0.0000 O   0  0  0  0  0  0  0  0  0  0  0  0
    3.4655    5.0126    0.0000 C   0  0  0  0  0  0  0  0  0  0  0  0
    3.4669    6.0126    0.0000 C   0  0  0  0  0  0  0  0  0  0  0  0
    4.3308    6.5164    0.0000 C   0  0  0  0  0  0  0  0  0  0  0  0
    5.2021    6.0151    0.0000 C   0  0  0  0  0  0  0  0  0  0  0  0
    5.2094    5.0100    0.0000 C   0  0  0  0  0  0  0  0  0  0  0  0
    4.3367    4.5113    0.0000 C   0  0  0  0  0  0  0  0  0  0  0  0
    4.3352    3.5113    0.0000 C   0  0  0  0  0  0  0  0  0  0  0  0
    3.4685    3.0126    0.0000 O   0  0  0  0  0  0  0  0  0  0  0  0
    5.2005    3.0100    0.0000 C   0  0  0  0  0  0  0  0  0  0  0  0
    5.1990    2.0100    0.0000 C   0  0  0  0  0  0  0  0  0  0  0  0
    6.0643    1.5087    0.0000 C   0  0  0  0  0  0  0  0  0  0  0  0
    6.9341    2.0125    0.0000 C   0  0  0  0  0  0  0  0  0  0  0  0
    7.7994    1.5113    0.0000 C   0  0  0  0  0  0  0  0  0  0  0  0
    7.8038    0.5112    0.0000 C   0  0  0  0  0  0  0  0  0  0  0  0
    6.9340    0.0074    0.0000 C   0  0  0  0  0  0  0  0  0  0  0  0
    6.0598    0.5035    0.0000 C   0  0  0  0  0  0  0  0  0  0  0  0
    0.8674    2.5126    0.0000 C   0  0  0  0  0  0  0  0  0  0  0  0
    0.8674    1.5126    0.0000 N   0  0  0  0  0  0  0  0  0  0  0  0
    0.0000    1.0051    0.0000 C   0  0  0  0  0  0  0  0  0  0  0  0
    0.0000    0.0000    0.0000 C   0  0  0  0  0  0  0  0  0  0  0  0
    0.8674   -0.4976    0.0000 N   0  0  0  0  0  0  0  0  0  0  0  0
    1.7348    0.0000    0.0000 C   0  0  0  0  0  0  0  0  0  0  0  0
    1.7348    1.0051    0.0000 C   0  0  0  0  0  0  0  0  0  0  0  0
    0.8674   -1.4976    0.0000 C   0  0  0  0  0  0  0  0  0  0  0  0
    1.7394   -1.9976    0.0000 C   0  0  0  0  0  0  0  0  0  0  0  0
    1.7395   -2.9977    0.0000 C   0  0  0  0  0  0  0  0  0  0  0  0
    0.8763   -3.5027    0.0000 C   0  0  0  0  0  0  0  0  0  0  0  0
    0.0043   -3.0027    0.0000 C   0  0  0  0  0  0  0  0  0  0  0  0
   -0.0046   -1.9976    0.0000 C   0  0  0  0  0  0  0  0  0  0  0  0
  1  2  1  0  0  0  0
  2  3  1  6  0  0  0
  2  4  1  0  0  0  0
  4  5  1  0  0  0  0
  5  6  1  0  0  0  0
  6 11  2  0  0  0  0
  6  7  1  0  0  0  0
  7  8  2  0  0  0  0
  8  9  1  0  0  0  0
  9 10  2  0  0  0  0
 10 11  1  0  0  0  0
 11 12  1  0  0  0  0
 12 13  2  0  0  0  0
 12 14  1  0  0  0  0
 14 15  1  0  0  0  0
 15 16  1  0  0  0  0
 16 21  2  0  0  0  0
 16 17  1  0  0  0  0
 17 18  2  0  0  0  0
 18 19  1  0  0  0  0
 19 20  2  0  0  0  0
 20 21  1  0  0  0  0
  2 22  1  0  0  0  0
 22 23  1  0  0  0  0
 23 28  1  0  0  0  0
 23 24  1  0  0  0  0
 24 25  1  0  0  0  0
 25 26  1  0  0  0  0
 26 27  1  0  0  0  0
 27 28  1  0  0  0  0
 26 29  1  0  0  0  0
 29 34  2  0  0  0  0
 29 30  1  0  0  0  0
 30 31  2  0  0  0  0
 31 32  1  0  0  0  0
 32 33  2  0  0  0  0
 33 34  1  0  0  0  0
M  END
> <ID>
1591081

$$$$
1591082
  -OEChem-05171416412D

 36 39  0     1  0  0  0  0  0999 V2000
   -1.7367    3.0100    0.0000 C   0  0  0  0  0  0  0  0  0  0  0  0
   -0.8699    2.5113    0.0000 O   0  0  0  0  0  0  0  0  0  0  0  0
   -0.0046    3.0126    0.0000 C   0  0  0  0  0  0  0  0  0  0  0  0
   -0.0047    4.0127    0.0000 C   0  0  0  0  0  0  0  0  0  0  0  0
    0.8585    4.5177    0.0000 C   0  0  0  0  0  0  0  0  0  0  0  0
    1.7305    4.0177    0.0000 C   0  0  0  0  0  0  0  0  0  0  0  0
    1.7394    3.0126    0.0000 C   0  0  0  0  0  0  0  0  0  0  0  0
    0.8674    2.5126    0.0000 C   0  0  0  0  0  0  0  0  0  0  0  0
    0.8674    1.5126    0.0000 N   0  0  0  0  0  0  0  0  0  0  0  0
    0.0000    1.0051    0.0000 C   0  0  0  0  0  0  0  0  0  0  0  0
    0.0000    0.0000    0.0000 C   0  0  0  0  0  0  0  0  0  0  0  0
    0.8674   -0.4976    0.0000 N   0  0  0  0  0  0  0  0  0  0  0  0
    0.8674   -1.4976    0.0000 C   0  0  0  0  0  0  0  0  0  0  0  0
    1.7334   -1.9976    0.0000 C   0  0  1  0  0  0  0  0  0  0  0  0
    2.2334   -1.1316    0.0000 H   0  0  0  0  0  0  0  0  0  0  0  0
    1.2334   -2.8636    0.0000 O   0  0  0  0  0  0  0  0  0  0  0  0
    2.5995   -2.4976    0.0000 C   0  0  0  0  0  0  0  0  0  0  0  0
    3.4655   -1.9976    0.0000 O   0  0  0  0  0  0  0  0  0  0  0  0
    4.3315   -2.4976    0.0000 C   0  0  0  0  0  0  0  0  0  0  0  0
    5.1983   -1.9988    0.0000 C   0  0  0  0  0  0  0  0  0  0  0  0
    6.0665   -2.4951    0.0000 C   0  0  0  0  0  0  0  0  0  0  0  0
    6.0680   -3.5003    0.0000 C   0  0  0  0  0  0  0  0  0  0  0  0
    5.2012   -4.0092    0.0000 C   0  0  0  0  0  0  0  0  0  0  0  0
    4.3330   -3.5028    0.0000 C   0  0  0  0  0  0  0  0  0  0  0  0
    3.4662   -4.0015    0.0000 C   0  0  0  0  0  0  0  0  0  0  0  0
    2.6009   -3.5002    0.0000 O   0  0  0  0  0  0  0  0  0  0  0  0
    3.4647   -5.0015    0.0000 C   0  0  0  0  0  0  0  0  0  0  0  0
    2.5979   -5.5002    0.0000 C   0  0  0  0  0  0  0  0  0  0  0  0
    2.5964   -6.5002    0.0000 C   0  0  0  0  0  0  0  0  0  0  0  0
    3.4677   -7.0015    0.0000 C   0  0  0  0  0  0  0  0  0  0  0  0
    3.4662   -8.0016    0.0000 C   0  0  0  0  0  0  0  0  0  0  0  0
    2.6023   -8.5053    0.0000 C   0  0  0  0  0  0  0  0  0  0  0  0
    1.7311   -8.0040    0.0000 C   0  0  0  0  0  0  0  0  0  0  0  0
    1.7237   -6.9989    0.0000 C   0  0  0  0  0  0  0  0  0  0  0  0
    1.7348    0.0000    0.0000 C   0  0  0  0  0  0  0  0  0  0  0  0
    1.7348    1.0051    0.0000 C   0  0  0  0  0  0  0  0  0  0  0  0
  1  2  1  0  0  0  0
  2  3  1  0  0  0  0
  3  8  2  0  0  0  0
  3  4  1  0  0  0  0
  4  5  2  0  0  0  0
  5  6  1  0  0  0  0
  6  7  2  0  0  0  0
  7  8  1  0  0  0  0
  8  9  1  0  0  0  0
  9 36  1  0  0  0  0
  9 10  1  0  0  0  0
 10 11  1  0  0  0  0
 11 12  1  0  0  0  0
 12 13  1  0  0  0  0
 13 14  1  0  0  0  0
 14 15  1  1  0  0  0
 14 16  1  0  0  0  0
 14 17  1  0  0  0  0
 17 18  1  0  0  0  0
 18 19  1  0  0  0  0
 19 24  2  0  0  0  0
 19 20  1  0  0  0  0
 20 21  2  0  0  0  0
 21 22  1  0  0  0  0
 22 23  2  0  0  0  0
 23 24  1  0  0  0  0
 24 25  1  0  0  0  0
 25 26  2  0  0  0  0
 25 27  1  0  0  0  0
 27 28  1  0  0  0  0
 28 29  1  0  0  0  0
 29 34  2  0  0  0  0
 29 30  1  0  0  0  0
 30 31  2  0  0  0  0
 31 32  1  0  0  0  0
 32 33  2  0  0  0  0
 33 34  1  0  0  0  0
 12 35  1  0  0  0  0
 35 36  1  0  0  0  0
M  END
> <ID>
1591082

$$$$
1591083
  -OEChem-05171416412D

 36 39  0     1  0  0  0  0  0999 V2000
    3.4625    4.0279    0.0000 C   0  0  0  0  0  0  0  0  0  0  0  0
    2.5935    4.5228    0.0000 O   0  0  0  0  0  0  0  0  0  0  0  0
    1.7305    4.0177    0.0000 C   0  0  0  0  0  0  0  0  0  0  0  0
    0.8585    4.5177    0.0000 C   0  0  0  0  0  0  0  0  0  0  0  0
   -0.0047    4.0127    0.0000 C   0  0  0  0  0  0  0  0  0  0  0  0
   -0.0046    3.0126    0.0000 C   0  0  0  0  0  0  0  0  0  0  0  0
    0.8674    2.5126    0.0000 C   0  0  0  0  0  0  0  0  0  0  0  0
    1.7394    3.0126    0.0000 C   0  0  0  0  0  0  0  0  0  0  0  0
    0.8674    1.5126    0.0000 N   0  0  0  0  0  0  0  0  0  0  0  0
    0.0000    1.0051    0.0000 C   0  0  0  0  0  0  0  0  0  0  0  0
    0.0000    0.0000    0.0000 C   0  0  0  0  0  0  0  0  0  0  0  0
    0.8674   -0.4976    0.0000 N   0  0  0  0  0  0  0  0  0  0  0  0
    0.8674   -1.4976    0.0000 C   0  0  0  0  0  0  0  0  0  0  0  0
    1.7334   -1.9976    0.0000 C   0  0  1  0  0  0  0  0  0  0  0  0
    2.2334   -1.1316    0.0000 H   0  0  0  0  0  0  0  0  0  0  0  0
    1.2334   -2.8636    0.0000 O   0  0  0  0  0  0  0  0  0  0  0  0
    2.5995   -2.4976    0.0000 C   0  0  0  0  0  0  0  0  0  0  0  0
    3.4655   -1.9976    0.0000 O   0  0  0  0  0  0  0  0  0  0  0  0
    4.3315   -2.4976    0.0000 C   0  0  0  0  0  0  0  0  0  0  0  0
    5.1983   -1.9988    0.0000 C   0  0  0  0  0  0  0  0  0  0  0  0
    6.0665   -2.4951    0.0000 C   0  0  0  0  0  0  0  0  0  0  0  0
    6.0680   -3.5003    0.0000 C   0  0  0  0  0  0  0  0  0  0  0  0
    5.2012   -4.0092    0.0000 C   0  0  0  0  0  0  0  0  0  0  0  0
    4.3330   -3.5028    0.0000 C   0  0  0  0  0  0  0  0  0  0  0  0
    3.4662   -4.0015    0.0000 C   0  0  0  0  0  0  0  0  0  0  0  0
    2.6009   -3.5002    0.0000 O   0  0  0  0  0  0  0  0  0  0  0  0
    3.4647   -5.0015    0.0000 C   0  0  0  0  0  0  0  0  0  0  0  0
    2.5979   -5.5002    0.0000 C   0  0  0  0  0  0  0  0  0  0  0  0
    2.5964   -6.5002    0.0000 C   0  0  0  0  0  0  0  0  0  0  0  0
    3.4677   -7.0015    0.0000 C   0  0  0  0  0  0  0  0  0  0  0  0
    3.4662   -8.0016    0.0000 C   0  0  0  0  0  0  0  0  0  0  0  0
    2.6023   -8.5053    0.0000 C   0  0  0  0  0  0  0  0  0  0  0  0
    1.7311   -8.0040    0.0000 C   0  0  0  0  0  0  0  0  0  0  0  0
    1.7237   -6.9989    0.0000 C   0  0  0  0  0  0  0  0  0  0  0  0
    1.7348    0.0000    0.0000 C   0  0  0  0  0  0  0  0  0  0  0  0
    1.7348    1.0051    0.0000 C   0  0  0  0  0  0  0  0  0  0  0  0
  1  2  1  0  0  0  0
  2  3  1  0  0  0  0
  3  8  2  0  0  0  0
  3  4  1  0  0  0  0
  4  5  2  0  0  0  0
  5  6  1  0  0  0  0
  6  7  2  0  0  0  0
  7  8  1  0  0  0  0
  7  9  1  0  0  0  0
  9 36  1  0  0  0  0
  9 10  1  0  0  0  0
 10 11  1  0  0  0  0
 11 12  1  0  0  0  0
 12 13  1  0  0  0  0
 13 14  1  0  0  0  0
 14 15  1  1  0  0  0
 14 16  1  0  0  0  0
 14 17  1  0  0  0  0
 17 18  1  0  0  0  0
 18 19  1  0  0  0  0
 19 24  2  0  0  0  0
 19 20  1  0  0  0  0
 20 21  2  0  0  0  0
 21 22  1  0  0  0  0
 22 23  2  0  0  0  0
 23 24  1  0  0  0  0
 24 25  1  0  0  0  0
 25 26  2  0  0  0  0
 25 27  1  0  0  0  0
 27 28  1  0  0  0  0
 28 29  1  0  0  0  0
 29 34  2  0  0  0  0
 29 30  1  0  0  0  0
 30 31  2  0  0  0  0
 31 32  1  0  0  0  0
 32 33  2  0  0  0  0
 33 34  1  0  0  0  0
 12 35  1  0  0  0  0
 35 36  1  0  0  0  0
M  END
> <ID>
1591083

$$$$
1591084
  -OEChem-05171416412D

 36 39  0     1  0  0  0  0  0999 V2000
    1.7399    6.0139    0.0000 C   0  0  0  0  0  0  0  0  0  0  0  0
    0.8717    5.5177    0.0000 O   0  0  0  0  0  0  0  0  0  0  0  0
    0.8673    4.5178    0.0000 C   0  0  0  0  0  0  0  0  0  0  0  0
    1.7371    4.0139    0.0000 C   0  0  0  0  0  0  0  0  0  0  0  0
    1.7327    3.0139    0.0000 C   0  0  0  0  0  0  0  0  0  0  0  0
    0.8674    2.5126    0.0000 C   0  0  0  0  0  0  0  0  0  0  0  0
   -0.0024    3.0165    0.0000 C   0  0  0  0  0  0  0  0  0  0  0  0
   -0.0069    4.0216    0.0000 C   0  0  0  0  0  0  0  0  0  0  0  0
    0.8674    1.5126    0.0000 N   0  0  0  0  0  0  0  0  0  0  0  0
    0.0000    1.0051    0.0000 C   0  0  0  0  0  0  0  0  0  0  0  0
    0.0000    0.0000    0.0000 C   0  0  0  0  0  0  0  0  0  0  0  0
    0.8674   -0.4976    0.0000 N   0  0  0  0  0  0  0  0  0  0  0  0
    0.8674   -1.4976    0.0000 C   0  0  0  0  0  0  0  0  0  0  0  0
    1.7334   -1.9976    0.0000 C   0  0  1  0  0  0  0  0  0  0  0  0
    2.2334   -1.1316    0.0000 H   0  0  0  0  0  0  0  0  0  0  0  0
    1.2334   -2.8636    0.0000 O   0  0  0  0  0  0  0  0  0  0  0  0
    2.5995   -2.4976    0.0000 C   0  0  0  0  0  0  0  0  0  0  0  0
    3.4655   -1.9976    0.0000 O   0  0  0  0  0  0  0  0  0  0  0  0
    4.3315   -2.4976    0.0000 C   0  0  0  0  0  0  0  0  0  0  0  0
    5.1983   -1.9988    0.0000 C   0  0  0  0  0  0  0  0  0  0  0  0
    6.0665   -2.4951    0.0000 C   0  0  0  0  0  0  0  0  0  0  0  0
    6.0680   -3.5003    0.0000 C   0  0  0  0  0  0  0  0  0  0  0  0
    5.2012   -4.0092    0.0000 C   0  0  0  0  0  0  0  0  0  0  0  0
    4.3330   -3.5028    0.0000 C   0  0  0  0  0  0  0  0  0  0  0  0
    3.4662   -4.0015    0.0000 C   0  0  0  0  0  0  0  0  0  0  0  0
    2.6009   -3.5002    0.0000 O   0  0  0  0  0  0  0  0  0  0  0  0
    3.4647   -5.0015    0.0000 C   0  0  0  0  0  0  0  0  0  0  0  0
    2.5979   -5.5002    0.0000 C   0  0  0  0  0  0  0  0  0  0  0  0
    2.5964   -6.5002    0.0000 C   0  0  0  0  0  0  0  0  0  0  0  0
    3.4677   -7.0015    0.0000 C   0  0  0  0  0  0  0  0  0  0  0  0
    3.4662   -8.0016    0.0000 C   0  0  0  0  0  0  0  0  0  0  0  0
    2.6023   -8.5053    0.0000 C   0  0  0  0  0  0  0  0  0  0  0  0
    1.7311   -8.0040    0.0000 C   0  0  0  0  0  0  0  0  0  0  0  0
    1.7237   -6.9989    0.0000 C   0  0  0  0  0  0  0  0  0  0  0  0
    1.7348    0.0000    0.0000 C   0  0  0  0  0  0  0  0  0  0  0  0
    1.7348    1.0051    0.0000 C   0  0  0  0  0  0  0  0  0  0  0  0
  1  2  1  0  0  0  0
  2  3  1  0  0  0  0
  3  8  2  0  0  0  0
  3  4  1  0  0  0  0
  4  5  2  0  0  0  0
  5  6  1  0  0  0  0
  6  7  2  0  0  0  0
  7  8  1  0  0  0  0
  6  9  1  0  0  0  0
  9 36  1  0  0  0  0
  9 10  1  0  0  0  0
 10 11  1  0  0  0  0
 11 12  1  0  0  0  0
 12 13  1  0  0  0  0
 13 14  1  0  0  0  0
 14 15  1  1  0  0  0
 14 16  1  0  0  0  0
 14 17  1  0  0  0  0
 17 18  1  0  0  0  0
 18 19  1  0  0  0  0
 19 24  2  0  0  0  0
 19 20  1  0  0  0  0
 20 21  2  0  0  0  0
 21 22  1  0  0  0  0
 22 23  2  0  0  0  0
 23 24  1  0  0  0  0
 24 25  1  0  0  0  0
 25 26  2  0  0  0  0
 25 27  1  0  0  0  0
 27 28  1  0  0  0  0
 28 29  1  0  0  0  0
 29 34  2  0  0  0  0
 29 30  1  0  0  0  0
 30 31  2  0  0  0  0
 31 32  1  0  0  0  0
 32 33  2  0  0  0  0
 33 34  1  0  0  0  0
 12 35  1  0  0  0  0
 35 36  1  0  0  0  0
M  END
> <ID>
1591084

$$$$
1591085
  -OEChem-05171416412D

 35 38  0     1  0  0  0  0  0999 V2000
   -0.8699    2.5113    0.0000 C   0  0  0  0  0  0  0  0  0  0  0  0
   -0.0046    3.0126    0.0000 C   0  0  0  0  0  0  0  0  0  0  0  0
   -0.0047    4.0127    0.0000 C   0  0  0  0  0  0  0  0  0  0  0  0
    0.8585    4.5177    0.0000 C   0  0  0  0  0  0  0  0  0  0  0  0
    1.7305    4.0177    0.0000 C   0  0  0  0  0  0  0  0  0  0  0  0
    1.7394    3.0126    0.0000 C   0  0  0  0  0  0  0  0  0  0  0  0
    0.8674    2.5126    0.0000 C   0  0  0  0  0  0  0  0  0  0  0  0
    0.8674    1.5126    0.0000 N   0  0  0  0  0  0  0  0  0  0  0  0
    0.0000    1.0051    0.0000 C   0  0  0  0  0  0  0  0  0  0  0  0
    0.0000    0.0000    0.0000 C   0  0  0  0  0  0  0  0  0  0  0  0
    0.8674   -0.4976    0.0000 N   0  0  0  0  0  0  0  0  0  0  0  0
    0.8674   -1.4976    0.0000 C   0  0  0  0  0  0  0  0  0  0  0  0
    1.7334   -1.9976    0.0000 C   0  0  1  0  0  0  0  0  0  0  0  0
    2.2334   -1.1316    0.0000 H   0  0  0  0  0  0  0  0  0  0  0  0
    1.2334   -2.8636    0.0000 O   0  0  0  0  0  0  0  0  0  0  0  0
    2.5995   -2.4976    0.0000 C   0  0  0  0  0  0  0  0  0  0  0  0
    3.4655   -1.9976    0.0000 O   0  0  0  0  0  0  0  0  0  0  0  0
    4.3315   -2.4976    0.0000 C   0  0  0  0  0  0  0  0  0  0  0  0
    5.1983   -1.9988    0.0000 C   0  0  0  0  0  0  0  0  0  0  0  0
    6.0665   -2.4951    0.0000 C   0  0  0  0  0  0  0  0  0  0  0  0
    6.0680   -3.5003    0.0000 C   0  0  0  0  0  0  0  0  0  0  0  0
    5.2012   -4.0092    0.0000 C   0  0  0  0  0  0  0  0  0  0  0  0
    4.3330   -3.5028    0.0000 C   0  0  0  0  0  0  0  0  0  0  0  0
    3.4662   -4.0015    0.0000 C   0  0  0  0  0  0  0  0  0  0  0  0
    2.6009   -3.5002    0.0000 O   0  0  0  0  0  0  0  0  0  0  0  0
    3.4647   -5.0015    0.0000 C   0  0  0  0  0  0  0  0  0  0  0  0
    2.5979   -5.5002    0.0000 C   0  0  0  0  0  0  0  0  0  0  0  0
    2.5964   -6.5002    0.0000 C   0  0  0  0  0  0  0  0  0  0  0  0
    3.4677   -7.0015    0.0000 C   0  0  0  0  0  0  0  0  0  0  0  0
    3.4662   -8.0016    0.0000 C   0  0  0  0  0  0  0  0  0  0  0  0
    2.6023   -8.5053    0.0000 C   0  0  0  0  0  0  0  0  0  0  0  0
    1.7311   -8.0040    0.0000 C   0  0  0  0  0  0  0  0  0  0  0  0
    1.7237   -6.9989    0.0000 C   0  0  0  0  0  0  0  0  0  0  0  0
    1.7348    0.0000    0.0000 C   0  0  0  0  0  0  0  0  0  0  0  0
    1.7348    1.0051    0.0000 C   0  0  0  0  0  0  0  0  0  0  0  0
  1  2  1  0  0  0  0
  2  7  2  0  0  0  0
  2  3  1  0  0  0  0
  3  4  2  0  0  0  0
  4  5  1  0  0  0  0
  5  6  2  0  0  0  0
  6  7  1  0  0  0  0
  7  8  1  0  0  0  0
  8 35  1  0  0  0  0
  8  9  1  0  0  0  0
  9 10  1  0  0  0  0
 10 11  1  0  0  0  0
 11 12  1  0  0  0  0
 12 13  1  0  0  0  0
 13 14  1  1  0  0  0
 13 15  1  0  0  0  0
 13 16  1  0  0  0  0
 16 17  1  0  0  0  0
 17 18  1  0  0  0  0
 18 23  2  0  0  0  0
 18 19  1  0  0  0  0
 19 20  2  0  0  0  0
 20 21  1  0  0  0  0
 21 22  2  0  0  0  0
 22 23  1  0  0  0  0
 23 24  1  0  0  0  0
 24 25  2  0  0  0  0
 24 26  1  0  0  0  0
 26 27  1  0  0  0  0
 27 28  1  0  0  0  0
 28 33  2  0  0  0  0
 28 29  1  0  0  0  0
 29 30  2  0  0  0  0
 30 31  1  0  0  0  0
 31 32  2  0  0  0  0
 32 33  1  0  0  0  0
 11 34  1  0  0  0  0
 34 35  1  0  0  0  0
M  END
> <ID>
1591085

$$$$
1591086
  -OEChem-05171416412D

 35 38  0     1  0  0  0  0  0999 V2000
    1.2334    3.8786    0.0000 O   0  0  0  0  0  0  0  0  0  0  0  0
    1.7334    3.0126    0.0000 C   0  0  1  0  0  0  0  0  0  0  0  0
    2.2334    2.1466    0.0000 H   0  0  0  0  0  0  0  0  0  0  0  0
    2.5995    3.5126    0.0000 C   0  0  0  0  0  0  0  0  0  0  0  0
    2.5995    4.5126    0.0000 O   0  0  0  0  0  0  0  0  0  0  0  0
    3.4655    5.0126    0.0000 C   0  0  0  0  0  0  0  0  0  0  0  0
    3.4669    6.0126    0.0000 C   0  0  0  0  0  0  0  0  0  0  0  0
    4.3308    6.5164    0.0000 C   0  0  0  0  0  0  0  0  0  0  0  0
    5.2021    6.0151    0.0000 C   0  0  0  0  0  0  0  0  0  0  0  0
    5.2094    5.0100    0.0000 C   0  0  0  0  0  0  0  0  0  0  0  0
    4.3367    4.5113    0.0000 C   0  0  0  0  0  0  0  0  0  0  0  0
    4.3352    3.5113    0.0000 C   0  0  0  0  0  0  0  0  0  0  0  0
    3.4685    3.0126    0.0000 O   0  0  0  0  0  0  0  0  0  0  0  0
    5.2005    3.0100    0.0000 C   0  0  0  0  0  0  0  0  0  0  0  0
    5.1990    2.0100    0.0000 C   0  0  0  0  0  0  0  0  0  0  0  0
    6.0643    1.5087    0.0000 C   0  0  0  0  0  0  0  0  0  0  0  0
    6.9341    2.0125    0.0000 C   0  0  0  0  0  0  0  0  0  0  0  0
    7.7994    1.5113    0.0000 C   0  0  0  0  0  0  0  0  0  0  0  0
    7.8038    0.5112    0.0000 C   0  0  0  0  0  0  0  0  0  0  0  0
    6.9340    0.0074    0.0000 C   0  0  0  0  0  0  0  0  0  0  0  0
    6.0598    0.5035    0.0000 C   0  0  0  0  0  0  0  0  0  0  0  0
    0.8674    2.5126    0.0000 C   0  0  0  0  0  0  0  0  0  0  0  0
    0.8674    1.5126    0.0000 N   0  0  0  0  0  0  0  0  0  0  0  0
    0.0000    1.0051    0.0000 C   0  0  0  0  0  0  0  0  0  0  0  0
    0.0000    0.0000    0.0000 C   0  0  0  0  0  0  0  0  0  0  0  0
    0.8674   -0.4976    0.0000 N   0  0  0  0  0  0  0  0  0  0  0  0
    0.8674   -1.4976    0.0000 C   0  0  0  0  0  0  0  0  0  0  0  0
    1.7334   -1.9976    0.0000 C   0  0  0  0  0  0  0  0  0  0  0  0
    2.6025   -1.4924    0.0000 C   0  0  0  0  0  0  0  0  0  0  0  0
    3.4685   -1.9924    0.0000 C   0  0  0  0  0  0  0  0  0  0  0  0
    3.4744   -2.9924    0.0000 C   0  0  0  0  0  0  0  0  0  0  0  0
    2.6054   -3.4976    0.0000 C   0  0  0  0  0  0  0  0  0  0  0  0
    1.7305   -3.0027    0.0000 C   0  0  0  0  0  0  0  0  0  0  0  0
    1.7348    0.0000    0.0000 C   0  0  0  0  0  0  0  0  0  0  0  0
    1.7348    1.0051    0.0000 C   0  0  0  0  0  0  0  0  0  0  0  0
  1  2  1  0  0  0  0
  2  3  1  6  0  0  0
  2  4  1  0  0  0  0
  4  5  1  0  0  0  0
  5  6  1  0  0  0  0
  6 11  2  0  0  0  0
  6  7  1  0  0  0  0
  7  8  2  0  0  0  0
  8  9  1  0  0  0  0
  9 10  2  0  0  0  0
 10 11  1  0  0  0  0
 11 12  1  0  0  0  0
 12 13  2  0  0  0  0
 12 14  1  0  0  0  0
 14 15  1  0  0  0  0
 15 16  1  0  0  0  0
 16 21  2  0  0  0  0
 16 17  1  0  0  0  0
 17 18  2  0  0  0  0
 18 19  1  0  0  0  0
 19 20  2  0  0  0  0
 20 21  1  0  0  0  0
  2 22  1  0  0  0  0
 22 23  1  0  0  0  0
 23 35  1  0  0  0  0
 23 24  1  0  0  0  0
 24 25  1  0  0  0  0
 25 26  1  0  0  0  0
 26 27  1  0  0  0  0
 27 28  1  0  0  0  0
 28 33  2  0  0  0  0
 28 29  1  0  0  0  0
 29 30  2  0  0  0  0
 30 31  1  0  0  0  0
 31 32  2  0  0  0  0
 32 33  1  0  0  0  0
 26 34  1  0  0  0  0
 34 35  1  0  0  0  0
M  END
> <ID>
1591086

$$$$
1591087
  -OEChem-05171416412D

 35 38  0     1  0  0  0  0  0999 V2000
    1.2334    3.8786    0.0000 O   0  0  0  0  0  0  0  0  0  0  0  0
    1.7334    3.0126    0.0000 C   0  0  1  0  0  0  0  0  0  0  0  0
    2.2334    2.1466    0.0000 H   0  0  0  0  0  0  0  0  0  0  0  0
    2.5995    3.5126    0.0000 C   0  0  0  0  0  0  0  0  0  0  0  0
    2.5995    4.5126    0.0000 O   0  0  0  0  0  0  0  0  0  0  0  0
    3.4655    5.0126    0.0000 C   0  0  0  0  0  0  0  0  0  0  0  0
    3.4669    6.0126    0.0000 C   0  0  0  0  0  0  0  0  0  0  0  0
    4.3308    6.5164    0.0000 C   0  0  0  0  0  0  0  0  0  0  0  0
    5.2021    6.0151    0.0000 C   0  0  0  0  0  0  0  0  0  0  0  0
    5.2094    5.0100    0.0000 C   0  0  0  0  0  0  0  0  0  0  0  0
    4.3367    4.5113    0.0000 C   0  0  0  0  0  0  0  0  0  0  0  0
    4.3352    3.5113    0.0000 C   0  0  0  0  0  0  0  0  0  0  0  0
    3.4685    3.0126    0.0000 O   0  0  0  0  0  0  0  0  0  0  0  0
    5.2005    3.0100    0.0000 C   0  0  0  0  0  0  0  0  0  0  0  0
    5.1990    2.0100    0.0000 C   0  0  0  0  0  0  0  0  0  0  0  0
    6.0643    1.5087    0.0000 C   0  0  0  0  0  0  0  0  0  0  0  0
    6.9341    2.0125    0.0000 C   0  0  0  0  0  0  0  0  0  0  0  0
    7.7994    1.5113    0.0000 C   0  0  0  0  0  0  0  0  0  0  0  0
    7.8038    0.5112    0.0000 C   0  0  0  0  0  0  0  0  0  0  0  0
    6.9340    0.0074    0.0000 C   0  0  0  0  0  0  0  0  0  0  0  0
    6.0598    0.5035    0.0000 C   0  0  0  0  0  0  0  0  0  0  0  0
    0.8674    2.5126    0.0000 C   0  0  0  0  0  0  0  0  0  0  0  0
    0.8674    1.5126    0.0000 N   0  0  0  0  0  0  0  0  0  0  0  0
    0.0000    1.0051    0.0000 C   0  0  0  0  0  0  0  0  0  0  0  0
    0.0000    0.0000    0.0000 C   0  0  0  0  0  0  0  0  0  0  0  0
    0.8674   -0.4976    0.0000 N   0  0  0  0  0  0  0  0  0  0  0  0
    1.7348    0.0000    0.0000 C   0  0  0  0  0  0  0  0  0  0  0  0
    1.7348    1.0051    0.0000 C   0  0  0  0  0  0  0  0  0  0  0  0
    0.8674   -1.4976    0.0000 C   0  0  0  0  0  0  0  0  0  0  0  0
    1.7394   -1.9976    0.0000 C   0  0  0  0  0  0  0  0  0  0  0  0
    1.7395   -2.9977    0.0000 C   0  0  0  0  0  0  0  0  0  0  0  0
    0.8763   -3.5027    0.0000 C   0  0  0  0  0  0  0  0  0  0  0  0
    0.8807   -4.5027    0.0000 F   0  0  0  0  0  0  0  0  0  0  0  0
    0.0043   -3.0027    0.0000 C   0  0  0  0  0  0  0  0  0  0  0  0
   -0.0046   -1.9976    0.0000 C   0  0  0  0  0  0  0  0  0  0  0  0
  1  2  1  0  0  0  0
  2  3  1  6  0  0  0
  2  4  1  0  0  0  0
  4  5  1  0  0  0  0
  5  6  1  0  0  0  0
  6 11  2  0  0  0  0
  6  7  1  0  0  0  0
  7  8  2  0  0  0  0
  8  9  1  0  0  0  0
  9 10  2  0  0  0  0
 10 11  1  0  0  0  0
 11 12  1  0  0  0  0
 12 13  2  0  0  0  0
 12 14  1  0  0  0  0
 14 15  1  0  0  0  0
 15 16  1  0  0  0  0
 16 21  2  0  0  0  0
 16 17  1  0  0  0  0
 17 18  2  0  0  0  0
 18 19  1  0  0  0  0
 19 20  2  0  0  0  0
 20 21  1  0  0  0  0
  2 22  1  0  0  0  0
 22 23  1  0  0  0  0
 23 28  1  0  0  0  0
 23 24  1  0  0  0  0
 24 25  1  0  0  0  0
 25 26  1  0  0  0  0
 26 27  1  0  0  0  0
 27 28  1  0  0  0  0
 26 29  1  0  0  0  0
 29 35  2  0  0  0  0
 29 30  1  0  0  0  0
 30 31  2  0  0  0  0
 31 32  1  0  0  0  0
 32 33  1  0  0  0  0
 32 34  2  0  0  0  0
 34 35  1  0  0  0  0
M  END
> <ID>
1591087

$$$$
1591088
  -OEChem-05171416412D

 22 23  0     1  0  0  0  0  0999 V2000
    0.8712   -5.4988    0.0000 C   0  0  0  0  0  0  0  0  0  0  0  0
    0.0044   -5.0001    0.0000 C   0  0  0  0  0  0  0  0  0  0  0  0
   -0.8608   -5.5014    0.0000 C   0  0  0  0  0  0  0  0  0  0  0  0
   -0.8593   -6.5014    0.0000 O   0  0  0  0  0  0  0  0  0  0  0  0
   -1.7276   -5.0027    0.0000 C   0  0  0  0  0  0  0  0  0  0  0  0
   -2.5936   -5.5028    0.0000 C   0  0  0  0  0  0  0  0  0  0  0  0
   -3.4626   -5.0078    0.0000 C   0  0  0  0  0  0  0  0  0  0  0  0
   -3.4656   -4.0026    0.0000 C   0  0  0  0  0  0  0  0  0  0  0  0
   -2.5996   -3.4924    0.0000 C   0  0  0  0  0  0  0  0  0  0  0  0
   -1.7306   -3.9975    0.0000 C   0  0  0  0  0  0  0  0  0  0  0  0
   -0.8646   -3.4975    0.0000 O   0  0  0  0  0  0  0  0  0  0  0  0
   -0.8646   -2.4975    0.0000 C   0  0  0  0  0  0  0  0  0  0  0  0
    0.0015   -1.9975    0.0000 C   0  0  2  0  0  0  0  0  0  0  0  0
   -0.4985   -1.1315    0.0000 H   0  0  0  0  0  0  0  0  0  0  0  0
    0.5015   -2.8635    0.0000 O   0  0  0  0  0  0  0  0  0  0  0  0
    0.8675   -1.4975    0.0000 C   0  0  0  0  0  0  0  0  0  0  0  0
    0.8675   -0.4975    0.0000 N   0  0  0  0  0  0  0  0  0  0  0  0
    0.0000    0.0000    0.0000 C   0  0  0  0  0  0  0  0  0  0  0  0
   -0.0000    1.0052    0.0000 C   0  0  0  0  0  0  0  0  0  0  0  0
    0.8675    1.5129    0.0000 O   0  0  0  0  0  0  0  0  0  0  0  0
    1.7350    1.0052    0.0000 C   0  0  0  0  0  0  0  0  0  0  0  0
    1.7350    0.0000    0.0000 C   0  0  0  0  0  0  0  0  0  0  0  0
  1  2  1  0  0  0  0
  2  3  1  0  0  0  0
  3  4  2  0  0  0  0
  3  5  1  0  0  0  0
  5 10  2  0  0  0  0
  5  6  1  0  0  0  0
  6  7  2  0  0  0  0
  7  8  1  0  0  0  0
  8  9  2  0  0  0  0
  9 10  1  0  0  0  0
 10 11  1  0  0  0  0
 11 12  1  0  0  0  0
 12 13  1  0  0  0  0
 13 14  1  6  0  0  0
 13 15  1  0  0  0  0
 13 16  1  0  0  0  0
 16 17  1  0  0  0  0
 17 22  1  0  0  0  0
 17 18  1  0  0  0  0
 18 19  1  0  0  0  0
 19 20  1  0  0  0  0
 20 21  1  0  0  0  0
 21 22  1  0  0  0  0
M  END
> <ID>
1591088

$$$$
1591089
  -OEChem-05171416412D

 25 26  0     1  0  0  0  0  0999 V2000
    6.0615   -2.5063    0.0000 C   0  0  0  0  0  0  0  0  0  0  0  0
    5.1962   -2.0050    0.0000 N   0  0  0  0  0  0  0  0  0  0  0  0
    4.3294   -2.5038    0.0000 C   0  0  0  0  0  0  0  0  0  0  0  0
    5.1976   -1.0050    0.0000 C   0  0  0  0  0  0  0  0  0  0  0  0
    4.3323   -0.5038    0.0000 C   0  0  1  0  0  0  0  0  0  0  0  0
    3.8311   -1.3691    0.0000 H   0  0  0  0  0  0  0  0  0  0  0  0
    4.8336    0.3615    0.0000 O   0  0  0  0  0  0  0  0  0  0  0  0
    3.4670   -0.0025    0.0000 C   0  0  0  0  0  0  0  0  0  0  0  0
    2.6003   -0.5013    0.0000 O   0  0  0  0  0  0  0  0  0  0  0  0
    1.7350    0.0000    0.0000 C   0  0  0  0  0  0  0  0  0  0  0  0
    0.8675   -0.4975    0.0000 C   0  0  0  0  0  0  0  0  0  0  0  0
    0.0000    0.0000    0.0000 C   0  0  0  0  0  0  0  0  0  0  0  0
   -0.0000    1.0052    0.0000 C   0  0  0  0  0  0  0  0  0  0  0  0
    0.8675    1.5129    0.0000 C   0  0  0  0  0  0  0  0  0  0  0  0
    1.7350    1.0052    0.0000 C   0  0  0  0  0  0  0  0  0  0  0  0
    2.6025    1.5026    0.0000 C   0  0  0  0  0  0  0  0  0  0  0  0
    3.4670    1.0001    0.0000 O   0  0  0  0  0  0  0  0  0  0  0  0
    2.6054    2.5026    0.0000 C   0  0  0  0  0  0  0  0  0  0  0  0
    3.4729    3.0001    0.0000 C   0  0  0  0  0  0  0  0  0  0  0  0
    3.4759    4.0001    0.0000 C   0  0  0  0  0  0  0  0  0  0  0  0
    2.6054    4.5027    0.0000 C   0  0  0  0  0  0  0  0  0  0  0  0
    2.6083    5.5027    0.0000 C   0  0  0  0  0  0  0  0  0  0  0  0
    3.4729    6.0052    0.0000 C   0  0  0  0  0  0  0  0  0  0  0  0
    4.3434    5.5026    0.0000 C   0  0  0  0  0  0  0  0  0  0  0  0
    4.3493    4.4975    0.0000 C   0  0  0  0  0  0  0  0  0  0  0  0
  1  2  1  0  0  0  0
  2  3  1  0  0  0  0
  2  4  1  0  0  0  0
  4  5  1  0  0  0  0
  5  6  1  1  0  0  0
  5  7  1  0  0  0  0
  5  8  1  0  0  0  0
  8  9  1  0  0  0  0
  9 10  1  0  0  0  0
 10 15  2  0  0  0  0
 10 11  1  0  0  0  0
 11 12  2  0  0  0  0
 12 13  1  0  0  0  0
 13 14  2  0  0  0  0
 14 15  1  0  0  0  0
 15 16  1  0  0  0  0
 16 17  2  0  0  0  0
 16 18  1  0  0  0  0
 18 19  1  0  0  0  0
 19 20  1  0  0  0  0
 20 25  2  0  0  0  0
 20 21  1  0  0  0  0
 21 22  2  0  0  0  0
 22 23  1  0  0  0  0
 23 24  2  0  0  0  0
 24 25  1  0  0  0  0
M  END
> <ID>
1591089

$$$$
1591090
  -OEChem-05171416412D

 21 22  0     1  0  0  0  0  0999 V2000
   -0.8593   -6.5014    0.0000 C   0  0  0  0  0  0  0  0  0  0  0  0
   -0.8608   -5.5014    0.0000 C   0  0  0  0  0  0  0  0  0  0  0  0
    0.0044   -5.0001    0.0000 O   0  0  0  0  0  0  0  0  0  0  0  0
   -1.7276   -5.0027    0.0000 C   0  0  0  0  0  0  0  0  0  0  0  0
   -2.5936   -5.5028    0.0000 C   0  0  0  0  0  0  0  0  0  0  0  0
   -3.4626   -5.0078    0.0000 C   0  0  0  0  0  0  0  0  0  0  0  0
   -3.4656   -4.0026    0.0000 C   0  0  0  0  0  0  0  0  0  0  0  0
   -2.5996   -3.4924    0.0000 C   0  0  0  0  0  0  0  0  0  0  0  0
   -1.7306   -3.9975    0.0000 C   0  0  0  0  0  0  0  0  0  0  0  0
   -0.8646   -3.4975    0.0000 O   0  0  0  0  0  0  0  0  0  0  0  0
   -0.8646   -2.4975    0.0000 C   0  0  0  0  0  0  0  0  0  0  0  0
    0.0015   -1.9975    0.0000 C   0  0  2  0  0  0  0  0  0  0  0  0
   -0.4985   -1.1315    0.0000 H   0  0  0  0  0  0  0  0  0  0  0  0
    0.5015   -2.8635    0.0000 O   0  0  0  0  0  0  0  0  0  0  0  0
    0.8675   -1.4975    0.0000 C   0  0  0  0  0  0  0  0  0  0  0  0
    0.8675   -0.4975    0.0000 N   0  0  0  0  0  0  0  0  0  0  0  0
    0.0000    0.0000    0.0000 C   0  0  0  0  0  0  0  0  0  0  0  0
   -0.0000    1.0052    0.0000 C   0  0  0  0  0  0  0  0  0  0  0  0
    0.8675    1.5129    0.0000 O   0  0  0  0  0  0  0  0  0  0  0  0
    1.7350    1.0052    0.0000 C   0  0  0  0  0  0  0  0  0  0  0  0
    1.7350    0.0000    0.0000 C   0  0  0  0  0  0  0  0  0  0  0  0
  1  2  1  0  0  0  0
  2  3  2  0  0  0  0
  2  4  1  0  0  0  0
  4  9  2  0  0  0  0
  4  5  1  0  0  0  0
  5  6  2  0  0  0  0
  6  7  1  0  0  0  0
  7  8  2  0  0  0  0
  8  9  1  0  0  0  0
  9 10  1  0  0  0  0
 10 11  1  0  0  0  0
 11 12  1  0  0  0  0
 12 13  1  6  0  0  0
 12 14  1  0  0  0  0
 12 15  1  0  0  0  0
 15 16  1  0  0  0  0
 16 21  1  0  0  0  0
 16 17  1  0  0  0  0
 17 18  1  0  0  0  0
 18 19  1  0  0  0  0
 19 20  1  0  0  0  0
 20 21  1  0  0  0  0
M  END
> <ID>
1591090

$$$$
1591091
  -OEChem-05171416412D

 27 28  0     1  0  0  0  0  0999 V2000
    8.6617   -1.0101    0.0000 C   0  0  0  0  0  0  0  0  0  0  0  0
    7.7964   -0.5088    0.0000 C   0  0  0  0  0  0  0  0  0  0  0  0
    6.9297   -1.0075    0.0000 C   0  0  0  0  0  0  0  0  0  0  0  0
    6.0644   -0.5063    0.0000 N   0  0  3  0  0  0  0  0  0  0  0  0
    6.0658    0.4937    0.0000 C   0  0  0  0  0  0  0  0  0  0  0  0
    5.1976   -1.0050    0.0000 C   0  0  0  0  0  0  0  0  0  0  0  0
    4.3323   -0.5038    0.0000 C   0  0  1  0  0  0  0  0  0  0  0  0
    3.8311   -1.3691    0.0000 H   0  0  0  0  0  0  0  0  0  0  0  0
    4.8336    0.3615    0.0000 O   0  0  0  0  0  0  0  0  0  0  0  0
    3.4670   -0.0025    0.0000 C   0  0  0  0  0  0  0  0  0  0  0  0
    2.6003   -0.5013    0.0000 O   0  0  0  0  0  0  0  0  0  0  0  0
    1.7350    0.0000    0.0000 C   0  0  0  0  0  0  0  0  0  0  0  0
    0.8675   -0.4975    0.0000 C   0  0  0  0  0  0  0  0  0  0  0  0
    0.0000    0.0000    0.0000 C   0  0  0  0  0  0  0  0  0  0  0  0
   -0.0000    1.0052    0.0000 C   0  0  0  0  0  0  0  0  0  0  0  0
    0.8675    1.5129    0.0000 C   0  0  0  0  0  0  0  0  0  0  0  0
    1.7350    1.0052    0.0000 C   0  0  0  0  0  0  0  0  0  0  0  0
    2.6025    1.5026    0.0000 C   0  0  0  0  0  0  0  0  0  0  0  0
    3.4670    1.0001    0.0000 O   0  0  0  0  0  0  0  0  0  0  0  0
    2.6054    2.5026    0.0000 C   0  0  0  0  0  0  0  0  0  0  0  0
    3.4729    3.0001    0.0000 C   0  0  0  0  0  0  0  0  0  0  0  0
    3.4759    4.0001    0.0000 C   0  0  0  0  0  0  0  0  0  0  0  0
    2.6054    4.5027    0.0000 C   0  0  0  0  0  0  0  0  0  0  0  0
    2.6083    5.5027    0.0000 C   0  0  0  0  0  0  0  0  0  0  0  0
    3.4729    6.0052    0.0000 C   0  0  0  0  0  0  0  0  0  0  0  0
    4.3434    5.5026    0.0000 C   0  0  0  0  0  0  0  0  0  0  0  0
    4.3493    4.4975    0.0000 C   0  0  0  0  0  0  0  0  0  0  0  0
  1  2  1  0  0  0  0
  2  3  1  0  0  0  0
  3  4  1  0  0  0  0
  4  5  1  0  0  0  0
  4  6  1  0  0  0  0
  6  7  1  0  0  0  0
  7  8  1  1  0  0  0
  7  9  1  0  0  0  0
  7 10  1  0  0  0  0
 10 11  1  0  0  0  0
 11 12  1  0  0  0  0
 12 17  2  0  0  0  0
 12 13  1  0  0  0  0
 13 14  2  0  0  0  0
 14 15  1  0  0  0  0
 15 16  2  0  0  0  0
 16 17  1  0  0  0  0
 17 18  1  0  0  0  0
 18 19  2  0  0  0  0
 18 20  1  0  0  0  0
 20 21  1  0  0  0  0
 21 22  1  0  0  0  0
 22 27  2  0  0  0  0
 22 23  1  0  0  0  0
 23 24  2  0  0  0  0
 24 25  1  0  0  0  0
 25 26  2  0  0  0  0
 26 27  1  0  0  0  0
M  END
> <ID>
1591091

$$$$
1591092
  -OEChem-05171416412D

 25 26  0     1  0  0  0  0  0999 V2000
    6.0600   -3.5063    0.0000 C   0  0  0  0  0  0  0  0  0  0  0  0
    6.0615   -2.5063    0.0000 C   0  0  0  0  0  0  0  0  0  0  0  0
    5.1962   -2.0050    0.0000 N   0  0  0  0  0  0  0  0  0  0  0  0
    4.3294   -2.5038    0.0000 C   0  0  0  0  0  0  0  0  0  0  0  0
    4.3280   -3.5038    0.0000 C   0  0  0  0  0  0  0  0  0  0  0  0
    5.1976   -1.0050    0.0000 C   0  0  0  0  0  0  0  0  0  0  0  0
    4.3323   -0.5038    0.0000 C   0  0  1  0  0  0  0  0  0  0  0  0
    3.8311   -1.3691    0.0000 H   0  0  0  0  0  0  0  0  0  0  0  0
    4.8336    0.3615    0.0000 O   0  0  0  0  0  0  0  0  0  0  0  0
    3.4670   -0.0025    0.0000 C   0  0  0  0  0  0  0  0  0  0  0  0
    2.6003   -0.5013    0.0000 O   0  0  0  0  0  0  0  0  0  0  0  0
    1.7350    0.0000    0.0000 C   0  0  0  0  0  0  0  0  0  0  0  0
    0.8675   -0.4975    0.0000 C   0  0  0  0  0  0  0  0  0  0  0  0
    0.0000    0.0000    0.0000 C   0  0  0  0  0  0  0  0  0  0  0  0
   -0.0000    1.0052    0.0000 C   0  0  0  0  0  0  0  0  0  0  0  0
    0.8675    1.5129    0.0000 C   0  0  0  0  0  0  0  0  0  0  0  0
    1.7350    1.0052    0.0000 C   0  0  0  0  0  0  0  0  0  0  0  0
    2.6025    1.5026    0.0000 C   0  0  0  0  0  0  0  0  0  0  0  0
    3.4670    1.0001    0.0000 O   0  0  0  0  0  0  0  0  0  0  0  0
    2.6054    2.5026    0.0000 C   0  0  0  0  0  0  0  0  0  0  0  0
    1.7349    3.0052    0.0000 C   0  0  0  0  0  0  0  0  0  0  0  0
    1.7378    4.0053    0.0000 C   0  0  0  0  0  0  0  0  0  0  0  0
    2.6024    4.5078    0.0000 C   0  0  0  0  0  0  0  0  0  0  0  0
    3.4729    4.0052    0.0000 C   0  0  0  0  0  0  0  0  0  0  0  0
    3.4789    3.0001    0.0000 C   0  0  0  0  0  0  0  0  0  0  0  0
  1  2  1  0  0  0  0
  2  3  1  0  0  0  0
  3  4  1  0  0  0  0
  4  5  1  0  0  0  0
  3  6  1  0  0  0  0
  6  7  1  0  0  0  0
  7  8  1  1  0  0  0
  7  9  1  0  0  0  0
  7 10  1  0  0  0  0
 10 11  1  0  0  0  0
 11 12  1  0  0  0  0
 12 17  2  0  0  0  0
 12 13  1  0  0  0  0
 13 14  2  0  0  0  0
 14 15  1  0  0  0  0
 15 16  2  0  0  0  0
 16 17  1  0  0  0  0
 17 18  1  0  0  0  0
 18 19  2  0  0  0  0
 18 20  1  0  0  0  0
 20 25  2  0  0  0  0
 20 21  1  0  0  0  0
 21 22  2  0  0  0  0
 22 23  1  0  0  0  0
 23 24  2  0  0  0  0
 24 25  1  0  0  0  0
M  END
> <ID>
1591092

$$$$
1591093
  -OEChem-05171416412D

 28 30  0     1  0  0  0  0  0999 V2000
    0.3660    4.3764    0.0000 O   0  0  0  0  0  0  0  0  0  0  0  0
    0.8660    3.5104    0.0000 C   0  0  1  0  0  0  0  0  0  0  0  0
    1.3660    2.6444    0.0000 H   0  0  0  0  0  0  0  0  0  0  0  0
    1.7321    4.0104    0.0000 C   0  0  0  0  0  0  0  0  0  0  0  0
    1.7321    5.0104    0.0000 O   0  0  0  0  0  0  0  0  0  0  0  0
    2.5981    5.5104    0.0000 C   0  0  0  0  0  0  0  0  0  0  0  0
    2.5995    6.5104    0.0000 C   0  0  0  0  0  0  0  0  0  0  0  0
    3.4634    7.0142    0.0000 C   0  0  0  0  0  0  0  0  0  0  0  0
    4.3347    6.5129    0.0000 C   0  0  0  0  0  0  0  0  0  0  0  0
    4.3420    5.5078    0.0000 C   0  0  0  0  0  0  0  0  0  0  0  0
    3.4693    5.0091    0.0000 C   0  0  0  0  0  0  0  0  0  0  0  0
    3.4678    4.0091    0.0000 C   0  0  0  0  0  0  0  0  0  0  0  0
    2.6011    3.5104    0.0000 O   0  0  0  0  0  0  0  0  0  0  0  0
    4.3331    3.5078    0.0000 C   0  0  0  0  0  0  0  0  0  0  0  0
    4.3316    2.5078    0.0000 C   0  0  0  0  0  0  0  0  0  0  0  0
    5.1969    2.0065    0.0000 C   0  0  0  0  0  0  0  0  0  0  0  0
    6.0667    2.5103    0.0000 C   0  0  0  0  0  0  0  0  0  0  0  0
    6.9320    2.0091    0.0000 C   0  0  0  0  0  0  0  0  0  0  0  0
    6.9364    1.0090    0.0000 C   0  0  0  0  0  0  0  0  0  0  0  0
    6.0666    0.5052    0.0000 C   0  0  0  0  0  0  0  0  0  0  0  0
    5.1924    1.0013    0.0000 C   0  0  0  0  0  0  0  0  0  0  0  0
   -0.0000    3.0104    0.0000 C   0  0  0  0  0  0  0  0  0  0  0  0
   -0.0000    2.0104    0.0000 N   0  0  0  0  0  0  0  0  0  0  0  0
   -0.8675    1.5027    0.0000 C   0  0  0  0  0  0  0  0  0  0  0  0
   -0.8675    0.4975    0.0000 C   0  0  0  0  0  0  0  0  0  0  0  0
    0.0000    0.0000    0.0000 C   0  0  0  0  0  0  0  0  0  0  0  0
    0.8675    0.4975    0.0000 C   0  0  0  0  0  0  0  0  0  0  0  0
    0.8675    1.5027    0.0000 C   0  0  0  0  0  0  0  0  0  0  0  0
  1  2  1  0  0  0  0
  2  3  1  6  0  0  0
  2  4  1  0  0  0  0
  4  5  1  0  0  0  0
  5  6  1  0  0  0  0
  6 11  2  0  0  0  0
  6  7  1  0  0  0  0
  7  8  2  0  0  0  0
  8  9  1  0  0  0  0
  9 10  2  0  0  0  0
 10 11  1  0  0  0  0
 11 12  1  0  0  0  0
 12 13  2  0  0  0  0
 12 14  1  0  0  0  0
 14 15  2  0  0  0  0
 15 16  1  0  0  0  0
 16 21  2  0  0  0  0
 16 17  1  0  0  0  0
 17 18  2  0  0  0  0
 18 19  1  0  0  0  0
 19 20  2  0  0  0  0
 20 21  1  0  0  0  0
  2 22  1  0  0  0  0
 22 23  1  0  0  0  0
 23 28  1  0  0  0  0
 23 24  1  0  0  0  0
 24 25  1  0  0  0  0
 25 26  1  0  0  0  0
 26 27  1  0  0  0  0
 27 28  1  0  0  0  0
M  END
> <ID>
1591093

$$$$
1591094
  -OEChem-05171416412D

 28 30  0     1  0  0  0  0  0999 V2000
    0.5015   -2.8635    0.0000 O   0  0  0  0  0  0  0  0  0  0  0  0
    0.0015   -1.9975    0.0000 C   0  0  1  0  0  0  0  0  0  0  0  0
   -0.4985   -1.1315    0.0000 H   0  0  0  0  0  0  0  0  0  0  0  0
   -0.8646   -2.4975    0.0000 C   0  0  0  0  0  0  0  0  0  0  0  0
   -0.8646   -3.4975    0.0000 O   0  0  0  0  0  0  0  0  0  0  0  0
   -1.7306   -3.9975    0.0000 C   0  0  0  0  0  0  0  0  0  0  0  0
   -1.7320   -4.9975    0.0000 C   0  0  0  0  0  0  0  0  0  0  0  0
   -2.5959   -5.5013    0.0000 C   0  0  0  0  0  0  0  0  0  0  0  0
   -3.4672   -5.0000    0.0000 C   0  0  0  0  0  0  0  0  0  0  0  0
   -3.4745   -3.9949    0.0000 C   0  0  0  0  0  0  0  0  0  0  0  0
   -2.6018   -3.4962    0.0000 C   0  0  0  0  0  0  0  0  0  0  0  0
   -2.6003   -2.4962    0.0000 C   0  0  0  0  0  0  0  0  0  0  0  0
   -1.7336   -1.9975    0.0000 O   0  0  0  0  0  0  0  0  0  0  0  0
   -3.4656   -1.9949    0.0000 C   0  0  0  0  0  0  0  0  0  0  0  0
   -3.4641   -0.9949    0.0000 C   0  0  0  0  0  0  0  0  0  0  0  0
   -4.3294   -0.4936    0.0000 C   0  0  0  0  0  0  0  0  0  0  0  0
   -5.1992   -0.9974    0.0000 C   0  0  0  0  0  0  0  0  0  0  0  0
   -6.0645   -0.4962    0.0000 C   0  0  0  0  0  0  0  0  0  0  0  0
   -6.0689    0.5039    0.0000 C   0  0  0  0  0  0  0  0  0  0  0  0
   -5.1991    1.0077    0.0000 C   0  0  0  0  0  0  0  0  0  0  0  0
   -4.3249    0.5116    0.0000 C   0  0  0  0  0  0  0  0  0  0  0  0
    0.8675   -1.4975    0.0000 C   0  0  0  0  0  0  0  0  0  0  0  0
    0.8675   -0.4975    0.0000 N   0  0  0  0  0  0  0  0  0  0  0  0
    0.0000    0.0000    0.0000 C   0  0  0  0  0  0  0  0  0  0  0  0
   -0.0000    1.0052    0.0000 C   0  0  0  0  0  0  0  0  0  0  0  0
    0.8675    1.5129    0.0000 O   0  0  0  0  0  0  0  0  0  0  0  0
    1.7350    1.0052    0.0000 C   0  0  0  0  0  0  0  0  0  0  0  0
    1.7350    0.0000    0.0000 C   0  0  0  0  0  0  0  0  0  0  0  0
  1  2  1  0  0  0  0
  2  3  1  6  0  0  0
  2  4  1  0  0  0  0
  4  5  1  0  0  0  0
  5  6  1  0  0  0  0
  6 11  2  0  0  0  0
  6  7  1  0  0  0  0
  7  8  2  0  0  0  0
  8  9  1  0  0  0  0
  9 10  2  0  0  0  0
 10 11  1  0  0  0  0
 11 12  1  0  0  0  0
 12 13  2  0  0  0  0
 12 14  1  0  0  0  0
 14 15  1  0  0  0  0
 15 16  1  0  0  0  0
 16 21  2  0  0  0  0
 16 17  1  0  0  0  0
 17 18  2  0  0  0  0
 18 19  1  0  0  0  0
 19 20  2  0  0  0  0
 20 21  1  0  0  0  0
  2 22  1  0  0  0  0
 22 23  1  0  0  0  0
 23 28  1  0  0  0  0
 23 24  1  0  0  0  0
 24 25  1  0  0  0  0
 25 26  1  0  0  0  0
 26 27  1  0  0  0  0
 27 28  1  0  0  0  0
M  END
> <ID>
1591094

$$$$
1591095
  -OEChem-05171416412D

 35 38  0     1  0  0  0  0  0999 V2000
    0.3660    4.3764    0.0000 O   0  0  0  0  0  0  0  0  0  0  0  0
    0.8660    3.5104    0.0000 C   0  0  1  0  0  0  0  0  0  0  0  0
    1.3660    2.6444    0.0000 H   0  0  0  0  0  0  0  0  0  0  0  0
    1.7321    4.0104    0.0000 C   0  0  0  0  0  0  0  0  0  0  0  0
    1.7321    5.0104    0.0000 O   0  0  0  0  0  0  0  0  0  0  0  0
    2.5981    5.5104    0.0000 C   0  0  0  0  0  0  0  0  0  0  0  0
    2.5995    6.5104    0.0000 C   0  0  0  0  0  0  0  0  0  0  0  0
    3.4634    7.0142    0.0000 C   0  0  0  0  0  0  0  0  0  0  0  0
    4.3347    6.5129    0.0000 C   0  0  0  0  0  0  0  0  0  0  0  0
    4.3420    5.5078    0.0000 C   0  0  0  0  0  0  0  0  0  0  0  0
    3.4693    5.0091    0.0000 C   0  0  0  0  0  0  0  0  0  0  0  0
    3.4678    4.0091    0.0000 C   0  0  0  0  0  0  0  0  0  0  0  0
    2.6011    3.5104    0.0000 O   0  0  0  0  0  0  0  0  0  0  0  0
    4.3331    3.5078    0.0000 C   0  0  0  0  0  0  0  0  0  0  0  0
    4.3316    2.5078    0.0000 C   0  0  0  0  0  0  0  0  0  0  0  0
    5.1969    2.0065    0.0000 C   0  0  0  0  0  0  0  0  0  0  0  0
    6.0667    2.5103    0.0000 C   0  0  0  0  0  0  0  0  0  0  0  0
    6.9320    2.0091    0.0000 C   0  0  0  0  0  0  0  0  0  0  0  0
    6.9364    1.0090    0.0000 C   0  0  0  0  0  0  0  0  0  0  0  0
    6.0666    0.5052    0.0000 C   0  0  0  0  0  0  0  0  0  0  0  0
    5.1924    1.0013    0.0000 C   0  0  0  0  0  0  0  0  0  0  0  0
   -0.0000    3.0104    0.0000 C   0  0  0  0  0  0  0  0  0  0  0  0
   -0.0000    2.0104    0.0000 N   0  0  0  0  0  0  0  0  0  0  0  0
   -0.8675    1.5027    0.0000 C   0  0  0  0  0  0  0  0  0  0  0  0
   -0.8675    0.4975    0.0000 C   0  0  0  0  0  0  0  0  0  0  0  0
    0.0000    0.0000    0.0000 C   0  0  0  0  0  0  0  0  0  0  0  0
    0.6420   -0.7667    0.0000 O   0  0  0  0  0  0  0  0  0  0  0  0
    0.8675    0.4975    0.0000 C   0  0  0  0  0  0  0  0  0  0  0  0
    0.8675    1.5027    0.0000 C   0  0  0  0  0  0  0  0  0  0  0  0
   -0.6420   -0.7667    0.0000 C   0  0  0  0  0  0  0  0  0  0  0  0
   -0.2946   -1.7099    0.0000 C   0  0  0  0  0  0  0  0  0  0  0  0
   -0.9366   -2.4766    0.0000 C   0  0  0  0  0  0  0  0  0  0  0  0
   -1.9226   -2.3097    0.0000 C   0  0  0  0  0  0  0  0  0  0  0  0
   -2.2701   -1.3665    0.0000 C   0  0  0  0  0  0  0  0  0  0  0  0
   -1.6316   -0.5902    0.0000 C   0  0  0  0  0  0  0  0  0  0  0  0
  1  2  1  0  0  0  0
  2  3  1  6  0  0  0
  2  4  1  0  0  0  0
  4  5  1  0  0  0  0
  5  6  1  0  0  0  0
  6 11  2  0  0  0  0
  6  7  1  0  0  0  0
  7  8  2  0  0  0  0
  8  9  1  0  0  0  0
  9 10  2  0  0  0  0
 10 11  1  0  0  0  0
 11 12  1  0  0  0  0
 12 13  2  0  0  0  0
 12 14  1  0  0  0  0
 14 15  1  0  0  0  0
 15 16  1  0  0  0  0
 16 21  2  0  0  0  0
 16 17  1  0  0  0  0
 17 18  2  0  0  0  0
 18 19  1  0  0  0  0
 19 20  2  0  0  0  0
 20 21  1  0  0  0  0
  2 22  1  0  0  0  0
 22 23  1  0  0  0  0
 23 29  1  0  0  0  0
 23 24  1  0  0  0  0
 24 25  1  0  0  0  0
 25 26  1  0  0  0  0
 26 27  1  0  0  0  0
 26 28  1  0  0  0  0
 28 29  1  0  0  0  0
 26 30  1  0  0  0  0
 30 35  2  0  0  0  0
 30 31  1  0  0  0  0
 31 32  2  0  0  0  0
 32 33  1  0  0  0  0
 33 34  2  0  0  0  0
 34 35  1  0  0  0  0
M  END
> <ID>
1591095

$$$$
1591096
  -OEChem-05171416412D

 28 30  0     1  0  0  0  0  0999 V2000
    0.3660    4.3764    0.0000 O   0  0  0  0  0  0  0  0  0  0  0  0
    0.8660    3.5104    0.0000 C   0  0  1  0  0  0  0  0  0  0  0  0
    1.3660    2.6444    0.0000 H   0  0  0  0  0  0  0  0  0  0  0  0
    1.7321    4.0104    0.0000 C   0  0  0  0  0  0  0  0  0  0  0  0
    1.7321    5.0104    0.0000 O   0  0  0  0  0  0  0  0  0  0  0  0
    2.5981    5.5104    0.0000 C   0  0  0  0  0  0  0  0  0  0  0  0
    2.5951    6.5156    0.0000 C   0  0  0  0  0  0  0  0  0  0  0  0
    3.4611    7.0157    0.0000 C   0  0  0  0  0  0  0  0  0  0  0  0
    4.3301    6.5207    0.0000 C   0  0  0  0  0  0  0  0  0  0  0  0
    4.3331    5.5155    0.0000 C   0  0  0  0  0  0  0  0  0  0  0  0
    3.4671    5.0053    0.0000 C   0  0  0  0  0  0  0  0  0  0  0  0
    5.1939    7.0245    0.0000 C   0  0  0  0  0  0  0  0  0  0  0  0
    6.0621    6.5283    0.0000 O   0  0  0  0  0  0  0  0  0  0  0  0
    5.1895    8.0245    0.0000 C   0  0  0  0  0  0  0  0  0  0  0  0
    6.0533    8.5283    0.0000 C   0  0  0  0  0  0  0  0  0  0  0  0
    6.0489    9.5283    0.0000 C   0  0  0  0  0  0  0  0  0  0  0  0
    5.1747   10.0245    0.0000 C   0  0  0  0  0  0  0  0  0  0  0  0
    5.1703   11.0245    0.0000 C   0  0  0  0  0  0  0  0  0  0  0  0
    6.0312   11.5334    0.0000 C   0  0  0  0  0  0  0  0  0  0  0  0
    6.9054   11.0372    0.0000 C   0  0  0  0  0  0  0  0  0  0  0  0
    6.9187   10.0321    0.0000 C   0  0  0  0  0  0  0  0  0  0  0  0
   -0.0000    3.0104    0.0000 C   0  0  0  0  0  0  0  0  0  0  0  0
   -0.0000    2.0104    0.0000 N   0  0  0  0  0  0  0  0  0  0  0  0
   -0.8675    1.5027    0.0000 C   0  0  0  0  0  0  0  0  0  0  0  0
   -0.8675    0.4975    0.0000 C   0  0  0  0  0  0  0  0  0  0  0  0
    0.0000    0.0000    0.0000 C   0  0  0  0  0  0  0  0  0  0  0  0
    0.8675    0.4975    0.0000 C   0  0  0  0  0  0  0  0  0  0  0  0
    0.8675    1.5027    0.0000 C   0  0  0  0  0  0  0  0  0  0  0  0
  1  2  1  0  0  0  0
  2  3  1  6  0  0  0
  2  4  1  0  0  0  0
  4  5  1  0  0  0  0
  5  6  1  0  0  0  0
  6 11  2  0  0  0  0
  6  7  1  0  0  0  0
  7  8  2  0  0  0  0
  8  9  1  0  0  0  0
  9 10  2  0  0  0  0
 10 11  1  0  0  0  0
  9 12  1  0  0  0  0
 12 13  2  0  0  0  0
 12 14  1  0  0  0  0
 14 15  1  0  0  0  0
 15 16  1  0  0  0  0
 16 21  2  0  0  0  0
 16 17  1  0  0  0  0
 17 18  2  0  0  0  0
 18 19  1  0  0  0  0
 19 20  2  0  0  0  0
 20 21  1  0  0  0  0
  2 22  1  0  0  0  0
 22 23  1  0  0  0  0
 23 28  1  0  0  0  0
 23 24  1  0  0  0  0
 24 25  1  0  0  0  0
 25 26  1  0  0  0  0
 26 27  1  0  0  0  0
 27 28  1  0  0  0  0
M  END
> <ID>
1591096

$$$$
1591097
  -OEChem-05171416412D

 30 32  0     1  0  0  0  0  0999 V2000
    0.2296    6.1460    0.0000 C   0  0  0  0  0  0  0  0  0  0  0  0
    1.2296    6.1475    0.0000 O   0  0  0  0  0  0  0  0  0  0  0  0
    1.7283    7.0143    0.0000 C   0  0  2  0  0  0  0  0  0  0  0  0
    2.2270    7.8811    0.0000 H   0  0  0  0  0  0  0  0  0  0  0  0
    0.8616    7.5130    0.0000 C   0  0  0  0  0  0  0  0  0  0  0  0
    0.8601    8.5130    0.0000 C   0  0  0  0  0  0  0  0  0  0  0  0
   -0.0067    9.0117    0.0000 C   0  0  0  0  0  0  0  0  0  0  0  0
   -0.0053   10.0169    0.0000 C   0  0  0  0  0  0  0  0  0  0  0  0
   -0.8720   10.5157    0.0000 C   0  0  0  0  0  0  0  0  0  0  0  0
   -1.7403   10.0194    0.0000 C   0  0  0  0  0  0  0  0  0  0  0  0
   -1.7417    9.0142    0.0000 C   0  0  0  0  0  0  0  0  0  0  0  0
   -0.8749    8.5053    0.0000 C   0  0  0  0  0  0  0  0  0  0  0  0
    2.5951    6.5156    0.0000 C   0  0  0  0  0  0  0  0  0  0  0  0
    3.4611    7.0157    0.0000 C   0  0  0  0  0  0  0  0  0  0  0  0
    4.3301    6.5207    0.0000 C   0  0  0  0  0  0  0  0  0  0  0  0
    4.3331    5.5155    0.0000 C   0  0  0  0  0  0  0  0  0  0  0  0
    3.4671    5.0053    0.0000 C   0  0  0  0  0  0  0  0  0  0  0  0
    2.5981    5.5104    0.0000 C   0  0  0  0  0  0  0  0  0  0  0  0
    1.7321    5.0104    0.0000 O   0  0  0  0  0  0  0  0  0  0  0  0
    1.7321    4.0104    0.0000 C   0  0  0  0  0  0  0  0  0  0  0  0
    0.8660    3.5104    0.0000 C   0  0  2  0  0  0  0  0  0  0  0  0
    1.3660    2.6444    0.0000 H   0  0  0  0  0  0  0  0  0  0  0  0
    0.3660    4.3764    0.0000 O   0  0  0  0  0  0  0  0  0  0  0  0
   -0.0000    3.0104    0.0000 C   0  0  0  0  0  0  0  0  0  0  0  0
   -0.0000    2.0104    0.0000 N   0  0  0  0  0  0  0  0  0  0  0  0
   -0.8675    1.5027    0.0000 C   0  0  0  0  0  0  0  0  0  0  0  0
   -0.8675    0.4975    0.0000 C   0  0  0  0  0  0  0  0  0  0  0  0
    0.0000    0.0000    0.0000 C   0  0  0  0  0  0  0  0  0  0  0  0
    0.8675    0.4975    0.0000 C   0  0  0  0  0  0  0  0  0  0  0  0
    0.8675    1.5027    0.0000 C   0  0  0  0  0  0  0  0  0  0  0  0
  1  2  1  0  0  0  0
  2  3  1  0  0  0  0
  3  4  1  1  0  0  0
  3  5  1  0  0  0  0
  5  6  1  0  0  0  0
  6  7  1  0  0  0  0
  7 12  2  0  0  0  0
  7  8  1  0  0  0  0
  8  9  2  0  0  0  0
  9 10  1  0  0  0  0
 10 11  2  0  0  0  0
 11 12  1  0  0  0  0
  3 13  1  0  0  0  0
 13 18  2  0  0  0  0
 13 14  1  0  0  0  0
 14 15  2  0  0  0  0
 15 16  1  0  0  0  0
 16 17  2  0  0  0  0
 17 18  1  0  0  0  0
 18 19  1  0  0  0  0
 19 20  1  0  0  0  0
 20 21  1  0  0  0  0
 21 22  1  6  0  0  0
 21 23  1  0  0  0  0
 21 24  1  0  0  0  0
 24 25  1  0  0  0  0
 25 30  1  0  0  0  0
 25 26  1  0  0  0  0
 26 27  1  0  0  0  0
 27 28  1  0  0  0  0
 28 29  1  0  0  0  0
 29 30  1  0  0  0  0
M  END
> <ID>
1591097

$$$$
1591098
  -OEChem-05171416412D

 19 20  0     1  0  0  0  0  0999 V2000
    8.2857    2.2346    0.0000 C   0  0  0  0  0  0  0  0  0  0  0  0
    7.2857    2.2346    0.0000 C   0  0  0  0  0  0  0  0  0  0  0  0
    6.7857    1.3685    0.0000 C   0  0  0  0  0  0  0  0  0  0  0  0
    5.7857    1.3685    0.0000 N   0  0  0  0  0  0  0  0  0  0  0  0
    5.2858    0.5024    0.0000 C   0  0  0  0  0  0  0  0  0  0  0  0
    4.2858    0.5024    0.0000 C   0  0  1  0  0  0  0  0  0  0  0  0
    4.2859   -0.4976    0.0000 H   0  0  0  0  0  0  0  0  0  0  0  0
    4.2857    1.5024    0.0000 O   0  0  0  0  0  0  0  0  0  0  0  0
    3.2858    0.5023    0.0000 C   0  0  0  0  0  0  0  0  0  0  0  0
    2.6938    1.3169    0.0000 O   0  0  0  0  0  0  0  0  0  0  0  0
    1.7360    1.0058    0.0000 C   0  0  0  0  0  0  0  0  0  0  0  0
    0.8680    1.5138    0.0000 C   0  0  0  0  0  0  0  0  0  0  0  0
    0.0000    1.0058    0.0000 C   0  0  0  0  0  0  0  0  0  0  0  0
    0.0000    0.0000    0.0000 C   0  0  0  0  0  0  0  0  0  0  0  0
    0.8680   -0.4978    0.0000 C   0  0  0  0  0  0  0  0  0  0  0  0
    1.7360   -0.0012    0.0000 C   0  0  0  0  0  0  0  0  0  0  0  0
    2.6938   -0.3125    0.0000 C   0  0  0  0  0  0  0  0  0  0  0  0
    3.0028   -1.2636    0.0000 C   0  0  0  0  0  0  0  0  0  0  0  0
    3.9809   -1.4715    0.0000 C   0  0  0  0  0  0  0  0  0  0  0  0
  1  2  1  0  0  0  0
  2  3  1  0  0  0  0
  3  4  1  0  0  0  0
  4  5  1  0  0  0  0
  5  6  1  0  0  0  0
  6  7  1  1  0  0  0
  6  8  1  0  0  0  0
  6  9  1  0  0  0  0
  9 17  2  0  0  0  0
  9 10  1  0  0  0  0
 10 11  1  0  0  0  0
 11 16  2  0  0  0  0
 11 12  1  0  0  0  0
 12 13  2  0  0  0  0
 13 14  1  0  0  0  0
 14 15  2  0  0  0  0
 15 16  1  0  0  0  0
 16 17  1  0  0  0  0
 17 18  1  0  0  0  0
 18 19  1  0  0  0  0
M  END
> <ID>
1591098

$$$$
1591099
  -OEChem-05171416412D

 35 39  0     1  0  0  0  0  0999 V2000
   -1.7367    3.0100    0.0000 C   0  0  0  0  0  0  0  0  0  0  0  0
   -0.8699    2.5113    0.0000 O   0  0  0  0  0  0  0  0  0  0  0  0
   -0.0046    3.0126    0.0000 C   0  0  0  0  0  0  0  0  0  0  0  0
   -0.0047    4.0127    0.0000 C   0  0  0  0  0  0  0  0  0  0  0  0
    0.8585    4.5177    0.0000 C   0  0  0  0  0  0  0  0  0  0  0  0
    1.7305    4.0177    0.0000 C   0  0  0  0  0  0  0  0  0  0  0  0
    1.7394    3.0126    0.0000 C   0  0  0  0  0  0  0  0  0  0  0  0
    0.8674    2.5126    0.0000 C   0  0  0  0  0  0  0  0  0  0  0  0
    0.8674    1.5126    0.0000 N   0  0  0  0  0  0  0  0  0  0  0  0
    0.0000    1.0051    0.0000 C   0  0  0  0  0  0  0  0  0  0  0  0
    0.0000    0.0000    0.0000 C   0  0  0  0  0  0  0  0  0  0  0  0
    0.8674   -0.4976    0.0000 N   0  0  0  0  0  0  0  0  0  0  0  0
    0.8674   -1.4976    0.0000 C   0  0  0  0  0  0  0  0  0  0  0  0
    1.7334   -1.9976    0.0000 C   0  0  1  0  0  0  0  0  0  0  0  0
    1.2334   -2.8636    0.0000 H   0  0  0  0  0  0  0  0  0  0  0  0
    2.2334   -1.1316    0.0000 O   0  0  0  0  0  0  0  0  0  0  0  0
    2.5995   -2.4976    0.0000 C   0  0  0  0  0  0  0  0  0  0  0  0
    3.5194   -2.0881    0.0000 O   0  0  0  0  0  0  0  0  0  0  0  0
    4.1934   -2.8364    0.0000 C   0  0  0  0  0  0  0  0  0  0  0  0
    5.1991   -2.8304    0.0000 C   0  0  0  0  0  0  0  0  0  0  0  0
    5.6969   -3.7043    0.0000 C   0  0  0  0  0  0  0  0  0  0  0  0
    5.1940   -4.5754    0.0000 C   0  0  0  0  0  0  0  0  0  0  0  0
    4.1934   -4.5725    0.0000 C   0  0  0  0  0  0  0  0  0  0  0  0
    3.6899   -3.7085    0.0000 C   0  0  0  0  0  0  0  0  0  0  0  0
    2.7048   -3.4992    0.0000 C   0  0  0  0  0  0  0  0  0  0  0  0
    1.9617   -4.1684    0.0000 C   0  0  0  0  0  0  0  0  0  0  0  0
    1.0106   -3.8595    0.0000 C   0  0  0  0  0  0  0  0  0  0  0  0
    0.2676   -4.5287    0.0000 C   0  0  0  0  0  0  0  0  0  0  0  0
   -0.6876   -4.2154    0.0000 C   0  0  0  0  0  0  0  0  0  0  0  0
   -1.4307   -4.8846    0.0000 C   0  0  0  0  0  0  0  0  0  0  0  0
   -1.2284   -5.8639    0.0000 C   0  0  0  0  0  0  0  0  0  0  0  0
   -0.2733   -6.1773    0.0000 C   0  0  0  0  0  0  0  0  0  0  0  0
    0.4795   -5.5113    0.0000 C   0  0  0  0  0  0  0  0  0  0  0  0
    1.7348    0.0000    0.0000 C   0  0  0  0  0  0  0  0  0  0  0  0
    1.7348    1.0051    0.0000 C   0  0  0  0  0  0  0  0  0  0  0  0
  1  2  1  0  0  0  0
  2  3  1  0  0  0  0
  3  8  2  0  0  0  0
  3  4  1  0  0  0  0
  4  5  2  0  0  0  0
  5  6  1  0  0  0  0
  6  7  2  0  0  0  0
  7  8  1  0  0  0  0
  8  9  1  0  0  0  0
  9 35  1  0  0  0  0
  9 10  1  0  0  0  0
 10 11  1  0  0  0  0
 11 12  1  0  0  0  0
 12 13  1  0  0  0  0
 13 14  1  0  0  0  0
 14 15  1  6  0  0  0
 14 16  1  0  0  0  0
 14 17  1  0  0  0  0
 17 25  2  0  0  0  0
 17 18  1  0  0  0  0
 18 19  1  0  0  0  0
 19 24  2  0  0  0  0
 19 20  1  0  0  0  0
 20 21  2  0  0  0  0
 21 22  1  0  0  0  0
 22 23  2  0  0  0  0
 23 24  1  0  0  0  0
 24 25  1  0  0  0  0
 25 26  1  0  0  0  0
 26 27  1  0  0  0  0
 27 28  1  0  0  0  0
 28 33  2  0  0  0  0
 28 29  1  0  0  0  0
 29 30  2  0  0  0  0
 30 31  1  0  0  0  0
 31 32  2  0  0  0  0
 32 33  1  0  0  0  0
 12 34  1  0  0  0  0
 34 35  1  0  0  0  0
M  END
> <ID>
1591099

$$$$
1591100
  -OEChem-05171416412D

 35 38  0     1  0  0  0  0  0999 V2000
    0.3660    4.3764    0.0000 O   0  0  0  0  0  0  0  0  0  0  0  0
    0.8660    3.5104    0.0000 C   0  0  1  0  0  0  0  0  0  0  0  0
    1.3660    2.6444    0.0000 H   0  0  0  0  0  0  0  0  0  0  0  0
    1.7321    4.0104    0.0000 C   0  0  0  0  0  0  0  0  0  0  0  0
    1.7321    5.0104    0.0000 O   0  0  0  0  0  0  0  0  0  0  0  0
    2.5981    5.5104    0.0000 C   0  0  0  0  0  0  0  0  0  0  0  0
    2.5995    6.5104    0.0000 C   0  0  0  0  0  0  0  0  0  0  0  0
    3.4634    7.0142    0.0000 C   0  0  0  0  0  0  0  0  0  0  0  0
    4.3347    6.5129    0.0000 C   0  0  0  0  0  0  0  0  0  0  0  0
    4.3420    5.5078    0.0000 C   0  0  0  0  0  0  0  0  0  0  0  0
    3.4693    5.0091    0.0000 C   0  0  0  0  0  0  0  0  0  0  0  0
    3.4678    4.0091    0.0000 C   0  0  0  0  0  0  0  0  0  0  0  0
    2.6011    3.5104    0.0000 O   0  0  0  0  0  0  0  0  0  0  0  0
    4.3331    3.5078    0.0000 C   0  0  0  0  0  0  0  0  0  0  0  0
    4.3316    2.5078    0.0000 C   0  0  0  0  0  0  0  0  0  0  0  0
    5.1969    2.0065    0.0000 C   0  0  0  0  0  0  0  0  0  0  0  0
    6.0667    2.5103    0.0000 C   0  0  0  0  0  0  0  0  0  0  0  0
    6.9320    2.0091    0.0000 C   0  0  0  0  0  0  0  0  0  0  0  0
    6.9364    1.0090    0.0000 C   0  0  0  0  0  0  0  0  0  0  0  0
    6.0666    0.5052    0.0000 C   0  0  0  0  0  0  0  0  0  0  0  0
    5.1924    1.0013    0.0000 C   0  0  0  0  0  0  0  0  0  0  0  0
   -0.0000    3.0104    0.0000 C   0  0  0  0  0  0  0  0  0  0  0  0
   -0.0000    2.0104    0.0000 N   0  0  0  0  0  0  0  0  0  0  0  0
   -0.8675    1.5027    0.0000 C   0  0  0  0  0  0  0  0  0  0  0  0
   -0.8675    0.4975    0.0000 C   0  0  0  0  0  0  0  0  0  0  0  0
    0.0000    0.0000    0.0000 C   0  0  0  0  0  0  0  0  0  0  0  0
    0.0000   -1.0000    0.0000 C   0  0  0  0  0  0  0  0  0  0  0  0
    0.8660   -1.5000    0.0000 C   0  0  0  0  0  0  0  0  0  0  0  0
    1.7351   -0.9948    0.0000 C   0  0  0  0  0  0  0  0  0  0  0  0
    2.6011   -1.4948    0.0000 C   0  0  0  0  0  0  0  0  0  0  0  0
    2.6070   -2.4948    0.0000 C   0  0  0  0  0  0  0  0  0  0  0  0
    1.7380   -3.0000    0.0000 C   0  0  0  0  0  0  0  0  0  0  0  0
    0.8631   -2.5051    0.0000 C   0  0  0  0  0  0  0  0  0  0  0  0
    0.8675    0.4975    0.0000 C   0  0  0  0  0  0  0  0  0  0  0  0
    0.8675    1.5027    0.0000 C   0  0  0  0  0  0  0  0  0  0  0  0
  1  2  1  0  0  0  0
  2  3  1  6  0  0  0
  2  4  1  0  0  0  0
  4  5  1  0  0  0  0
  5  6  1  0  0  0  0
  6 11  2  0  0  0  0
  6  7  1  0  0  0  0
  7  8  2  0  0  0  0
  8  9  1  0  0  0  0
  9 10  2  0  0  0  0
 10 11  1  0  0  0  0
 11 12  1  0  0  0  0
 12 13  2  0  0  0  0
 12 14  1  0  0  0  0
 14 15  1  0  0  0  0
 15 16  1  0  0  0  0
 16 21  2  0  0  0  0
 16 17  1  0  0  0  0
 17 18  2  0  0  0  0
 18 19  1  0  0  0  0
 19 20  2  0  0  0  0
 20 21  1  0  0  0  0
  2 22  1  0  0  0  0
 22 23  1  0  0  0  0
 23 35  1  0  0  0  0
 23 24  1  0  0  0  0
 24 25  1  0  0  0  0
 25 26  1  0  0  0  0
 26 27  1  0  0  0  0
 27 28  1  0  0  0  0
 28 33  2  0  0  0  0
 28 29  1  0  0  0  0
 29 30  2  0  0  0  0
 30 31  1  0  0  0  0
 31 32  2  0  0  0  0
 32 33  1  0  0  0  0
 26 34  1  0  0  0  0
 34 35  1  0  0  0  0
M  END
> <ID>
1591100

$$$$
1591101
  -OEChem-05171416412D

 27 28  0     1  0  0  0  0  0999 V2000
   -6.0571   -5.5063    0.0000 C   0  0  0  0  0  0  0  0  0  0  0  0
   -5.1918   -5.0050    0.0000 C   0  0  0  0  0  0  0  0  0  0  0  0
   -5.1933   -4.0050    0.0000 C   0  0  0  0  0  0  0  0  0  0  0  0
   -4.3280   -3.5038    0.0000 N   0  0  0  0  0  0  0  0  0  0  0  0
   -4.3294   -2.5038    0.0000 C   0  0  0  0  0  0  0  0  0  0  0  0
   -3.4641   -2.0025    0.0000 C   0  0  1  0  0  0  0  0  0  0  0  0
   -3.9654   -1.1372    0.0000 H   0  0  0  0  0  0  0  0  0  0  0  0
   -2.9629   -2.8678    0.0000 O   0  0  0  0  0  0  0  0  0  0  0  0
   -2.5988   -1.5013    0.0000 C   0  0  0  0  0  0  0  0  0  0  0  0
   -2.6003   -0.5013    0.0000 O   0  0  0  0  0  0  0  0  0  0  0  0
   -1.7350   -0.0000    0.0000 C   0  0  0  0  0  0  0  0  0  0  0  0
   -0.8675   -0.4975    0.0000 C   0  0  0  0  0  0  0  0  0  0  0  0
    0.0000    0.0000    0.0000 C   0  0  0  0  0  0  0  0  0  0  0  0
   -0.0000    1.0052    0.0000 C   0  0  0  0  0  0  0  0  0  0  0  0
    0.8675    1.5026    0.0000 O   0  0  0  0  0  0  0  0  0  0  0  0
   -0.8675    1.5129    0.0000 C   0  0  0  0  0  0  0  0  0  0  0  0
   -1.7350    1.0052    0.0000 C   0  0  0  0  0  0  0  0  0  0  0  0
   -2.6025    1.5026    0.0000 C   0  0  0  0  0  0  0  0  0  0  0  0
   -2.6054    2.5026    0.0000 O   0  0  0  0  0  0  0  0  0  0  0  0
   -3.4670    1.0001    0.0000 C   0  0  0  0  0  0  0  0  0  0  0  0
   -4.3345    1.4975    0.0000 C   0  0  0  0  0  0  0  0  0  0  0  0
   -5.1991    0.9950    0.0000 C   0  0  0  0  0  0  0  0  0  0  0  0
   -5.1932   -0.0102    0.0000 C   0  0  0  0  0  0  0  0  0  0  0  0
   -6.0577   -0.5128    0.0000 C   0  0  0  0  0  0  0  0  0  0  0  0
   -6.9281   -0.0204    0.0000 C   0  0  0  0  0  0  0  0  0  0  0  0
   -6.9341    0.9847    0.0000 C   0  0  0  0  0  0  0  0  0  0  0  0
   -6.0696    1.4976    0.0000 C   0  0  0  0  0  0  0  0  0  0  0  0
  1  2  1  0  0  0  0
  2  3  1  0  0  0  0
  3  4  1  0  0  0  0
  4  5  1  0  0  0  0
  5  6  1  0  0  0  0
  6  7  1  1  0  0  0
  6  8  1  0  0  0  0
  6  9  1  0  0  0  0
  9 10  1  0  0  0  0
 10 11  1  0  0  0  0
 11 17  2  0  0  0  0
 11 12  1  0  0  0  0
 12 13  2  0  0  0  0
 13 14  1  0  0  0  0
 14 15  1  0  0  0  0
 14 16  2  0  0  0  0
 16 17  1  0  0  0  0
 17 18  1  0  0  0  0
 18 19  2  0  0  0  0
 18 20  1  0  0  0  0
 20 21  1  0  0  0  0
 21 22  1  0  0  0  0
 22 27  2  0  0  0  0
 22 23  1  0  0  0  0
 23 24  2  0  0  0  0
 24 25  1  0  0  0  0
 25 26  2  0  0  0  0
 26 27  1  0  0  0  0
M  END
> <ID>
1591101

$$$$
1591102
  -OEChem-05171416412D

 35 38  0     1  0  0  0  0  0999 V2000
    1.2334    3.8786    0.0000 O   0  0  0  0  0  0  0  0  0  0  0  0
    1.7334    3.0126    0.0000 C   0  0  1  0  0  0  0  0  0  0  0  0
    2.2334    2.1466    0.0000 H   0  0  0  0  0  0  0  0  0  0  0  0
    2.5995    3.5126    0.0000 C   0  0  0  0  0  0  0  0  0  0  0  0
    2.5995    4.5126    0.0000 O   0  0  0  0  0  0  0  0  0  0  0  0
    3.4655    5.0126    0.0000 C   0  0  0  0  0  0  0  0  0  0  0  0
    3.4625    6.0178    0.0000 C   0  0  0  0  0  0  0  0  0  0  0  0
    4.3285    6.5179    0.0000 C   0  0  0  0  0  0  0  0  0  0  0  0
    5.1975    6.0229    0.0000 C   0  0  0  0  0  0  0  0  0  0  0  0
    5.2005    5.0177    0.0000 C   0  0  0  0  0  0  0  0  0  0  0  0
    4.3345    4.5075    0.0000 C   0  0  0  0  0  0  0  0  0  0  0  0
    6.0613    6.5267    0.0000 C   0  0  0  0  0  0  0  0  0  0  0  0
    6.9295    6.0305    0.0000 O   0  0  0  0  0  0  0  0  0  0  0  0
    6.0569    7.5267    0.0000 C   0  0  0  0  0  0  0  0  0  0  0  0
    6.9207    8.0305    0.0000 C   0  0  0  0  0  0  0  0  0  0  0  0
    6.9163    9.0305    0.0000 C   0  0  0  0  0  0  0  0  0  0  0  0
    6.0421    9.5267    0.0000 C   0  0  0  0  0  0  0  0  0  0  0  0
    6.0377   10.5267    0.0000 C   0  0  0  0  0  0  0  0  0  0  0  0
    6.8986   11.0356    0.0000 C   0  0  0  0  0  0  0  0  0  0  0  0
    7.7728   10.5394    0.0000 C   0  0  0  0  0  0  0  0  0  0  0  0
    7.7861    9.5343    0.0000 C   0  0  0  0  0  0  0  0  0  0  0  0
    0.8674    2.5126    0.0000 C   0  0  0  0  0  0  0  0  0  0  0  0
    0.8674    1.5126    0.0000 N   0  0  0  0  0  0  0  0  0  0  0  0
    0.0000    1.0051    0.0000 C   0  0  0  0  0  0  0  0  0  0  0  0
    0.0000    0.0000    0.0000 C   0  0  0  0  0  0  0  0  0  0  0  0
    0.8674   -0.4976    0.0000 N   0  0  0  0  0  0  0  0  0  0  0  0
    1.7348    0.0000    0.0000 C   0  0  0  0  0  0  0  0  0  0  0  0
    1.7348    1.0051    0.0000 C   0  0  0  0  0  0  0  0  0  0  0  0
    0.8674   -1.4976    0.0000 C   0  0  0  0  0  0  0  0  0  0  0  0
    1.7394   -1.9976    0.0000 C   0  0  0  0  0  0  0  0  0  0  0  0
    1.7395   -2.9977    0.0000 C   0  0  0  0  0  0  0  0  0  0  0  0
    0.8763   -3.5027    0.0000 C   0  0  0  0  0  0  0  0  0  0  0  0
    0.8807   -4.5027    0.0000 F   0  0  0  0  0  0  0  0  0  0  0  0
    0.0043   -3.0027    0.0000 C   0  0  0  0  0  0  0  0  0  0  0  0
   -0.0046   -1.9976    0.0000 C   0  0  0  0  0  0  0  0  0  0  0  0
  1  2  1  0  0  0  0
  2  3  1  6  0  0  0
  2  4  1  0  0  0  0
  4  5  1  0  0  0  0
  5  6  1  0  0  0  0
  6 11  2  0  0  0  0
  6  7  1  0  0  0  0
  7  8  2  0  0  0  0
  8  9  1  0  0  0  0
  9 10  2  0  0  0  0
 10 11  1  0  0  0  0
  9 12  1  0  0  0  0
 12 13  2  0  0  0  0
 12 14  1  0  0  0  0
 14 15  1  0  0  0  0
 15 16  1  0  0  0  0
 16 21  2  0  0  0  0
 16 17  1  0  0  0  0
 17 18  2  0  0  0  0
 18 19  1  0  0  0  0
 19 20  2  0  0  0  0
 20 21  1  0  0  0  0
  2 22  1  0  0  0  0
 22 23  1  0  0  0  0
 23 28  1  0  0  0  0
 23 24  1  0  0  0  0
 24 25  1  0  0  0  0
 25 26  1  0  0  0  0
 26 27  1  0  0  0  0
 27 28  1  0  0  0  0
 26 29  1  0  0  0  0
 29 35  2  0  0  0  0
 29 30  1  0  0  0  0
 30 31  2  0  0  0  0
 31 32  1  0  0  0  0
 32 33  1  0  0  0  0
 32 34  2  0  0  0  0
 34 35  1  0  0  0  0
M  END
> <ID>
1591102

$$$$
1591103
  -OEChem-05171416412D

 28 30  0     1  0  0  0  0  0999 V2000
    0.3660    4.3764    0.0000 O   0  0  0  0  0  0  0  0  0  0  0  0
    0.8660    3.5104    0.0000 C   0  0  1  0  0  0  0  0  0  0  0  0
    1.3660    2.6444    0.0000 H   0  0  0  0  0  0  0  0  0  0  0  0
    1.7321    4.0104    0.0000 C   0  0  0  0  0  0  0  0  0  0  0  0
    1.7321    5.0104    0.0000 O   0  0  0  0  0  0  0  0  0  0  0  0
    2.5981    5.5104    0.0000 C   0  0  0  0  0  0  0  0  0  0  0  0
    3.4671    5.0052    0.0000 C   0  0  0  0  0  0  0  0  0  0  0  0
    4.3332    5.5052    0.0000 C   0  0  0  0  0  0  0  0  0  0  0  0
    4.3390    6.5052    0.0000 C   0  0  0  0  0  0  0  0  0  0  0  0
    3.4700    7.0104    0.0000 C   0  0  0  0  0  0  0  0  0  0  0  0
    2.5951    6.5155    0.0000 C   0  0  0  0  0  0  0  0  0  0  0  0
    3.4759    8.0104    0.0000 C   0  0  0  0  0  0  0  0  0  0  0  0
    4.3449    8.5053    0.0000 O   0  0  0  0  0  0  0  0  0  0  0  0
    2.6128    8.5155    0.0000 C   0  0  0  0  0  0  0  0  0  0  0  0
    2.6187    9.5155    0.0000 C   0  0  0  0  0  0  0  0  0  0  0  0
    1.7557   10.0206    0.0000 C   0  0  0  0  0  0  0  0  0  0  0  0
    0.8837    9.5205    0.0000 C   0  0  0  0  0  0  0  0  0  0  0  0
    0.0206   10.0256    0.0000 C   0  0  0  0  0  0  0  0  0  0  0  0
    0.0206   11.0256    0.0000 C   0  0  0  0  0  0  0  0  0  0  0  0
    0.8926   11.5257    0.0000 C   0  0  0  0  0  0  0  0  0  0  0  0
    1.7646   11.0257    0.0000 C   0  0  0  0  0  0  0  0  0  0  0  0
   -0.0000    3.0104    0.0000 C   0  0  0  0  0  0  0  0  0  0  0  0
   -0.0000    2.0104    0.0000 N   0  0  0  0  0  0  0  0  0  0  0  0
   -0.8675    1.5027    0.0000 C   0  0  0  0  0  0  0  0  0  0  0  0
   -0.8675    0.4975    0.0000 C   0  0  0  0  0  0  0  0  0  0  0  0
    0.0000    0.0000    0.0000 C   0  0  0  0  0  0  0  0  0  0  0  0
    0.8675    0.4975    0.0000 C   0  0  0  0  0  0  0  0  0  0  0  0
    0.8675    1.5027    0.0000 C   0  0  0  0  0  0  0  0  0  0  0  0
  1  2  1  0  0  0  0
  2  3  1  6  0  0  0
  2  4  1  0  0  0  0
  4  5  1  0  0  0  0
  5  6  1  0  0  0  0
  6 11  2  0  0  0  0
  6  7  1  0  0  0  0
  7  8  2  0  0  0  0
  8  9  1  0  0  0  0
  9 10  2  0  0  0  0
 10 11  1  0  0  0  0
 10 12  1  0  0  0  0
 12 13  2  0  0  0  0
 12 14  1  0  0  0  0
 14 15  1  0  0  0  0
 15 16  1  0  0  0  0
 16 21  2  0  0  0  0
 16 17  1  0  0  0  0
 17 18  2  0  0  0  0
 18 19  1  0  0  0  0
 19 20  2  0  0  0  0
 20 21  1  0  0  0  0
  2 22  1  0  0  0  0
 22 23  1  0  0  0  0
 23 28  1  0  0  0  0
 23 24  1  0  0  0  0
 24 25  1  0  0  0  0
 25 26  1  0  0  0  0
 26 27  1  0  0  0  0
 27 28  1  0  0  0  0
M  END
> <ID>
1591103

$$$$
1591104
  -OEChem-05171416412D

 28 30  0     1  0  0  0  0  0999 V2000
    0.5015   -2.8635    0.0000 O   0  0  0  0  0  0  0  0  0  0  0  0
    0.0015   -1.9975    0.0000 C   0  0  1  0  0  0  0  0  0  0  0  0
   -0.4985   -1.1315    0.0000 H   0  0  0  0  0  0  0  0  0  0  0  0
   -0.8646   -2.4975    0.0000 C   0  0  0  0  0  0  0  0  0  0  0  0
   -0.8646   -3.4975    0.0000 O   0  0  0  0  0  0  0  0  0  0  0  0
   -1.7306   -3.9975    0.0000 C   0  0  0  0  0  0  0  0  0  0  0  0
   -1.7276   -5.0027    0.0000 C   0  0  0  0  0  0  0  0  0  0  0  0
   -2.5936   -5.5028    0.0000 C   0  0  0  0  0  0  0  0  0  0  0  0
   -3.4626   -5.0078    0.0000 C   0  0  0  0  0  0  0  0  0  0  0  0
   -3.4656   -4.0026    0.0000 C   0  0  0  0  0  0  0  0  0  0  0  0
   -2.5996   -3.4924    0.0000 C   0  0  0  0  0  0  0  0  0  0  0  0
   -4.3264   -5.5116    0.0000 C   0  0  0  0  0  0  0  0  0  0  0  0
   -5.1946   -5.0154    0.0000 O   0  0  0  0  0  0  0  0  0  0  0  0
   -4.3220   -6.5116    0.0000 C   0  0  0  0  0  0  0  0  0  0  0  0
   -5.1858   -7.0154    0.0000 C   0  0  0  0  0  0  0  0  0  0  0  0
   -5.1814   -8.0154    0.0000 C   0  0  0  0  0  0  0  0  0  0  0  0
   -4.3072   -8.5116    0.0000 C   0  0  0  0  0  0  0  0  0  0  0  0
   -4.3028   -9.5116    0.0000 C   0  0  0  0  0  0  0  0  0  0  0  0
   -5.1637  -10.0205    0.0000 C   0  0  0  0  0  0  0  0  0  0  0  0
   -6.0379   -9.5243    0.0000 C   0  0  0  0  0  0  0  0  0  0  0  0
   -6.0512   -8.5192    0.0000 C   0  0  0  0  0  0  0  0  0  0  0  0
    0.8675   -1.4975    0.0000 C   0  0  0  0  0  0  0  0  0  0  0  0
    0.8675   -0.4975    0.0000 N   0  0  0  0  0  0  0  0  0  0  0  0
    0.0000    0.0000    0.0000 C   0  0  0  0  0  0  0  0  0  0  0  0
   -0.0000    1.0052    0.0000 C   0  0  0  0  0  0  0  0  0  0  0  0
    0.8675    1.5129    0.0000 O   0  0  0  0  0  0  0  0  0  0  0  0
    1.7350    1.0052    0.0000 C   0  0  0  0  0  0  0  0  0  0  0  0
    1.7350    0.0000    0.0000 C   0  0  0  0  0  0  0  0  0  0  0  0
  1  2  1  0  0  0  0
  2  3  1  6  0  0  0
  2  4  1  0  0  0  0
  4  5  1  0  0  0  0
  5  6  1  0  0  0  0
  6 11  2  0  0  0  0
  6  7  1  0  0  0  0
  7  8  2  0  0  0  0
  8  9  1  0  0  0  0
  9 10  2  0  0  0  0
 10 11  1  0  0  0  0
  9 12  1  0  0  0  0
 12 13  2  0  0  0  0
 12 14  1  0  0  0  0
 14 15  1  0  0  0  0
 15 16  1  0  0  0  0
 16 21  2  0  0  0  0
 16 17  1  0  0  0  0
 17 18  2  0  0  0  0
 18 19  1  0  0  0  0
 19 20  2  0  0  0  0
 20 21  1  0  0  0  0
  2 22  1  0  0  0  0
 22 23  1  0  0  0  0
 23 28  1  0  0  0  0
 23 24  1  0  0  0  0
 24 25  1  0  0  0  0
 25 26  1  0  0  0  0
 26 27  1  0  0  0  0
 27 28  1  0  0  0  0
M  END
> <ID>
1591104

$$$$
1591105
  -OEChem-05171416412D

 36 39  0     1  0  0  0  0  0999 V2000
    1.2334    3.8786    0.0000 O   0  0  0  0  0  0  0  0  0  0  0  0
    1.7334    3.0126    0.0000 C   0  0  1  0  0  0  0  0  0  0  0  0
    2.2334    2.1466    0.0000 H   0  0  0  0  0  0  0  0  0  0  0  0
    2.5995    3.5126    0.0000 C   0  0  0  0  0  0  0  0  0  0  0  0
    2.5995    4.5126    0.0000 O   0  0  0  0  0  0  0  0  0  0  0  0
    3.4655    5.0126    0.0000 C   0  0  0  0  0  0  0  0  0  0  0  0
    4.3323    4.5138    0.0000 C   0  0  0  0  0  0  0  0  0  0  0  0
    5.2005    5.0101    0.0000 C   0  0  0  0  0  0  0  0  0  0  0  0
    5.2019    6.0153    0.0000 C   0  0  0  0  0  0  0  0  0  0  0  0
    4.3352    6.5242    0.0000 C   0  0  0  0  0  0  0  0  0  0  0  0
    3.4669    6.0178    0.0000 C   0  0  0  0  0  0  0  0  0  0  0  0
    2.6002    6.5165    0.0000 C   0  0  2  0  0  0  0  0  0  0  0  0
    3.0989    7.3833    0.0000 H   0  0  0  0  0  0  0  0  0  0  0  0
    2.1015    5.6497    0.0000 O   0  0  0  0  0  0  0  0  0  0  0  0
    1.7334    7.0152    0.0000 C   0  0  0  0  0  0  0  0  0  0  0  0
    1.7319    8.0152    0.0000 C   0  0  0  0  0  0  0  0  0  0  0  0
    0.8651    8.5139    0.0000 C   0  0  0  0  0  0  0  0  0  0  0  0
    0.8666    9.5191    0.0000 C   0  0  0  0  0  0  0  0  0  0  0  0
   -0.0002   10.0179    0.0000 C   0  0  0  0  0  0  0  0  0  0  0  0
   -0.8684    9.5216    0.0000 C   0  0  0  0  0  0  0  0  0  0  0  0
   -0.8699    8.5164    0.0000 C   0  0  0  0  0  0  0  0  0  0  0  0
   -0.0031    8.0075    0.0000 C   0  0  0  0  0  0  0  0  0  0  0  0
    0.8674    2.5126    0.0000 C   0  0  0  0  0  0  0  0  0  0  0  0
    0.8674    1.5126    0.0000 N   0  0  0  0  0  0  0  0  0  0  0  0
    0.0000    1.0051    0.0000 C   0  0  0  0  0  0  0  0  0  0  0  0
    0.0000    0.0000    0.0000 C   0  0  0  0  0  0  0  0  0  0  0  0
    0.8674   -0.4976    0.0000 N   0  0  0  0  0  0  0  0  0  0  0  0
    1.7348    0.0000    0.0000 C   0  0  0  0  0  0  0  0  0  0  0  0
    1.7348    1.0051    0.0000 C   0  0  0  0  0  0  0  0  0  0  0  0
    0.8674   -1.4976    0.0000 C   0  0  0  0  0  0  0  0  0  0  0  0
    1.7394   -1.9976    0.0000 C   0  0  0  0  0  0  0  0  0  0  0  0
    1.7395   -2.9977    0.0000 C   0  0  0  0  0  0  0  0  0  0  0  0
    0.8763   -3.5027    0.0000 C   0  0  0  0  0  0  0  0  0  0  0  0
    0.8807   -4.5027    0.0000 F   0  0  0  0  0  0  0  0  0  0  0  0
    0.0043   -3.0027    0.0000 C   0  0  0  0  0  0  0  0  0  0  0  0
   -0.0046   -1.9976    0.0000 C   0  0  0  0  0  0  0  0  0  0  0  0
  1  2  1  0  0  0  0
  2  3  1  6  0  0  0
  2  4  1  0  0  0  0
  4  5  1  0  0  0  0
  5  6  1  0  0  0  0
  6 11  2  0  0  0  0
  6  7  1  0  0  0  0
  7  8  2  0  0  0  0
  8  9  1  0  0  0  0
  9 10  2  0  0  0  0
 10 11  1  0  0  0  0
 11 12  1  0  0  0  0
 12 13  1  1  0  0  0
 12 14  1  0  0  0  0
 12 15  1  0  0  0  0
 15 16  1  0  0  0  0
 16 17  1  0  0  0  0
 17 22  2  0  0  0  0
 17 18  1  0  0  0  0
 18 19  2  0  0  0  0
 19 20  1  0  0  0  0
 20 21  2  0  0  0  0
 21 22  1  0  0  0  0
  2 23  1  0  0  0  0
 23 24  1  0  0  0  0
 24 29  1  0  0  0  0
 24 25  1  0  0  0  0
 25 26  1  0  0  0  0
 26 27  1  0  0  0  0
 27 28  1  0  0  0  0
 28 29  1  0  0  0  0
 27 30  1  0  0  0  0
 30 36  2  0  0  0  0
 30 31  1  0  0  0  0
 31 32  2  0  0  0  0
 32 33  1  0  0  0  0
 33 34  1  0  0  0  0
 33 35  2  0  0  0  0
 35 36  1  0  0  0  0
M  END
> <ID>
1591105

$$$$
1591106
  -OEChem-05171416412D

 37 40  0     1  0  0  0  0  0999 V2000
    1.0970    5.6482    0.0000 C   0  0  0  0  0  0  0  0  0  0  0  0
    2.0970    5.6497    0.0000 O   0  0  0  0  0  0  0  0  0  0  0  0
    2.5957    6.5165    0.0000 C   0  0  2  0  0  0  0  0  0  0  0  0
    3.0944    7.3833    0.0000 H   0  0  0  0  0  0  0  0  0  0  0  0
    1.7290    7.0152    0.0000 C   0  0  0  0  0  0  0  0  0  0  0  0
    1.7275    8.0152    0.0000 C   0  0  0  0  0  0  0  0  0  0  0  0
    0.8607    8.5139    0.0000 C   0  0  0  0  0  0  0  0  0  0  0  0
    0.8621    9.5191    0.0000 C   0  0  0  0  0  0  0  0  0  0  0  0
   -0.0046   10.0179    0.0000 C   0  0  0  0  0  0  0  0  0  0  0  0
   -0.8729    9.5216    0.0000 C   0  0  0  0  0  0  0  0  0  0  0  0
   -0.8743    8.5164    0.0000 C   0  0  0  0  0  0  0  0  0  0  0  0
   -0.0075    8.0075    0.0000 C   0  0  0  0  0  0  0  0  0  0  0  0
    3.4625    6.0178    0.0000 C   0  0  0  0  0  0  0  0  0  0  0  0
    4.3285    6.5179    0.0000 C   0  0  0  0  0  0  0  0  0  0  0  0
    5.1975    6.0229    0.0000 C   0  0  0  0  0  0  0  0  0  0  0  0
    5.2005    5.0177    0.0000 C   0  0  0  0  0  0  0  0  0  0  0  0
    4.3345    4.5075    0.0000 C   0  0  0  0  0  0  0  0  0  0  0  0
    3.4655    5.0126    0.0000 C   0  0  0  0  0  0  0  0  0  0  0  0
    2.5995    4.5126    0.0000 O   0  0  0  0  0  0  0  0  0  0  0  0
    2.5995    3.5126    0.0000 C   0  0  0  0  0  0  0  0  0  0  0  0
    1.7334    3.0126    0.0000 C   0  0  2  0  0  0  0  0  0  0  0  0
    2.2334    2.1466    0.0000 H   0  0  0  0  0  0  0  0  0  0  0  0
    1.2334    3.8786    0.0000 O   0  0  0  0  0  0  0  0  0  0  0  0
    0.8674    2.5126    0.0000 C   0  0  0  0  0  0  0  0  0  0  0  0
    0.8674    1.5126    0.0000 N   0  0  0  0  0  0  0  0  0  0  0  0
    0.0000    1.0051    0.0000 C   0  0  0  0  0  0  0  0  0  0  0  0
    0.0000    0.0000    0.0000 C   0  0  0  0  0  0  0  0  0  0  0  0
    0.8674   -0.4976    0.0000 N   0  0  0  0  0  0  0  0  0  0  0  0
    1.7348    0.0000    0.0000 C   0  0  0  0  0  0  0  0  0  0  0  0
    1.7348    1.0051    0.0000 C   0  0  0  0  0  0  0  0  0  0  0  0
    0.8674   -1.4976    0.0000 C   0  0  0  0  0  0  0  0  0  0  0  0
    1.7394   -1.9976    0.0000 C   0  0  0  0  0  0  0  0  0  0  0  0
    1.7395   -2.9977    0.0000 C   0  0  0  0  0  0  0  0  0  0  0  0
    0.8763   -3.5027    0.0000 C   0  0  0  0  0  0  0  0  0  0  0  0
    0.8807   -4.5027    0.0000 F   0  0  0  0  0  0  0  0  0  0  0  0
    0.0043   -3.0027    0.0000 C   0  0  0  0  0  0  0  0  0  0  0  0
   -0.0046   -1.9976    0.0000 C   0  0  0  0  0  0  0  0  0  0  0  0
  1  2  1  0  0  0  0
  2  3  1  0  0  0  0
  3  4  1  1  0  0  0
  3  5  1  0  0  0  0
  5  6  1  0  0  0  0
  6  7  1  0  0  0  0
  7 12  2  0  0  0  0
  7  8  1  0  0  0  0
  8  9  2  0  0  0  0
  9 10  1  0  0  0  0
 10 11  2  0  0  0  0
 11 12  1  0  0  0  0
  3 13  1  0  0  0  0
 13 18  2  0  0  0  0
 13 14  1  0  0  0  0
 14 15  2  0  0  0  0
 15 16  1  0  0  0  0
 16 17  2  0  0  0  0
 17 18  1  0  0  0  0
 18 19  1  0  0  0  0
 19 20  1  0  0  0  0
 20 21  1  0  0  0  0
 21 22  1  6  0  0  0
 21 23  1  0  0  0  0
 21 24  1  0  0  0  0
 24 25  1  0  0  0  0
 25 30  1  0  0  0  0
 25 26  1  0  0  0  0
 26 27  1  0  0  0  0
 27 28  1  0  0  0  0
 28 29  1  0  0  0  0
 29 30  1  0  0  0  0
 28 31  1  0  0  0  0
 31 37  2  0  0  0  0
 31 32  1  0  0  0  0
 32 33  2  0  0  0  0
 33 34  1  0  0  0  0
 34 35  1  0  0  0  0
 34 36  2  0  0  0  0
 36 37  1  0  0  0  0
M  END
> <ID>
1591106

$$$$
1591107
  -OEChem-05171416412D

 35 38  0     1  0  0  0  0  0999 V2000
    1.2334    3.8786    0.0000 O   0  0  0  0  0  0  0  0  0  0  0  0
    1.7334    3.0126    0.0000 C   0  0  1  0  0  0  0  0  0  0  0  0
    2.2334    2.1466    0.0000 H   0  0  0  0  0  0  0  0  0  0  0  0
    2.5995    3.5126    0.0000 C   0  0  0  0  0  0  0  0  0  0  0  0
    2.5995    4.5126    0.0000 O   0  0  0  0  0  0  0  0  0  0  0  0
    3.4655    5.0126    0.0000 C   0  0  0  0  0  0  0  0  0  0  0  0
    4.3345    4.5074    0.0000 C   0  0  0  0  0  0  0  0  0  0  0  0
    5.2006    5.0074    0.0000 C   0  0  0  0  0  0  0  0  0  0  0  0
    5.2064    6.0074    0.0000 C   0  0  0  0  0  0  0  0  0  0  0  0
    4.3374    6.5126    0.0000 C   0  0  0  0  0  0  0  0  0  0  0  0
    3.4625    6.0177    0.0000 C   0  0  0  0  0  0  0  0  0  0  0  0
    4.3433    7.5126    0.0000 C   0  0  0  0  0  0  0  0  0  0  0  0
    5.2123    8.0075    0.0000 O   0  0  0  0  0  0  0  0  0  0  0  0
    3.4802    8.0177    0.0000 C   0  0  0  0  0  0  0  0  0  0  0  0
    3.4861    9.0177    0.0000 C   0  0  0  0  0  0  0  0  0  0  0  0
    2.6231    9.5228    0.0000 C   0  0  0  0  0  0  0  0  0  0  0  0
    1.7511    9.0227    0.0000 C   0  0  0  0  0  0  0  0  0  0  0  0
    0.8880    9.5278    0.0000 C   0  0  0  0  0  0  0  0  0  0  0  0
    0.8880   10.5278    0.0000 C   0  0  0  0  0  0  0  0  0  0  0  0
    1.7600   11.0279    0.0000 C   0  0  0  0  0  0  0  0  0  0  0  0
    2.6320   10.5279    0.0000 C   0  0  0  0  0  0  0  0  0  0  0  0
    0.8674    2.5126    0.0000 C   0  0  0  0  0  0  0  0  0  0  0  0
    0.8674    1.5126    0.0000 N   0  0  0  0  0  0  0  0  0  0  0  0
    0.0000    1.0051    0.0000 C   0  0  0  0  0  0  0  0  0  0  0  0
    0.0000    0.0000    0.0000 C   0  0  0  0  0  0  0  0  0  0  0  0
    0.8674   -0.4976    0.0000 N   0  0  0  0  0  0  0  0  0  0  0  0
    1.7348    0.0000    0.0000 C   0  0  0  0  0  0  0  0  0  0  0  0
    1.7348    1.0051    0.0000 C   0  0  0  0  0  0  0  0  0  0  0  0
    0.8674   -1.4976    0.0000 C   0  0  0  0  0  0  0  0  0  0  0  0
    1.7394   -1.9976    0.0000 C   0  0  0  0  0  0  0  0  0  0  0  0
    1.7395   -2.9977    0.0000 C   0  0  0  0  0  0  0  0  0  0  0  0
    0.8763   -3.5027    0.0000 C   0  0  0  0  0  0  0  0  0  0  0  0
    0.8807   -4.5027    0.0000 F   0  0  0  0  0  0  0  0  0  0  0  0
    0.0043   -3.0027    0.0000 C   0  0  0  0  0  0  0  0  0  0  0  0
   -0.0046   -1.9976    0.0000 C   0  0  0  0  0  0  0  0  0  0  0  0
  1  2  1  0  0  0  0
  2  3  1  6  0  0  0
  2  4  1  0  0  0  0
  4  5  1  0  0  0  0
  5  6  1  0  0  0  0
  6 11  2  0  0  0  0
  6  7  1  0  0  0  0
  7  8  2  0  0  0  0
  8  9  1  0  0  0  0
  9 10  2  0  0  0  0
 10 11  1  0  0  0  0
 10 12  1  0  0  0  0
 12 13  2  0  0  0  0
 12 14  1  0  0  0  0
 14 15  1  0  0  0  0
 15 16  1  0  0  0  0
 16 21  2  0  0  0  0
 16 17  1  0  0  0  0
 17 18  2  0  0  0  0
 18 19  1  0  0  0  0
 19 20  2  0  0  0  0
 20 21  1  0  0  0  0
  2 22  1  0  0  0  0
 22 23  1  0  0  0  0
 23 28  1  0  0  0  0
 23 24  1  0  0  0  0
 24 25  1  0  0  0  0
 25 26  1  0  0  0  0
 26 27  1  0  0  0  0
 27 28  1  0  0  0  0
 26 29  1  0  0  0  0
 29 35  2  0  0  0  0
 29 30  1  0  0  0  0
 30 31  2  0  0  0  0
 31 32  1  0  0  0  0
 32 33  1  0  0  0  0
 32 34  2  0  0  0  0
 34 35  1  0  0  0  0
M  END
> <ID>
1591107

$$$$
1591108
  -OEChem-05171416412D

 29 30  0     1  0  0  0  0  0999 V2000
    5.1991    1.9899    0.0000 C   0  0  0  0  0  0  0  0  0  0  0  0
    4.3345    2.4925    0.0000 C   0  0  0  0  0  0  0  0  0  0  0  0
    3.4670    1.9950    0.0000 C   0  0  0  0  0  0  0  0  0  0  0  0
    4.3375    3.4925    0.0000 N   0  0  0  0  0  0  0  0  0  0  0  0
    3.4729    3.9950    0.0000 C   0  0  0  0  0  0  0  0  0  0  0  0
    2.6054    3.4976    0.0000 C   0  0  1  0  0  0  0  0  0  0  0  0
    3.1029    2.6301    0.0000 H   0  0  0  0  0  0  0  0  0  0  0  0
    2.1080    4.3651    0.0000 O   0  0  0  0  0  0  0  0  0  0  0  0
    1.7379    3.0001    0.0000 C   0  0  0  0  0  0  0  0  0  0  0  0
    1.7350    2.0001    0.0000 O   0  0  0  0  0  0  0  0  0  0  0  0
    0.8675    1.5027    0.0000 C   0  0  0  0  0  0  0  0  0  0  0  0
    0.8675    0.4975    0.0000 C   0  0  0  0  0  0  0  0  0  0  0  0
    0.0000    0.0000    0.0000 C   0  0  0  0  0  0  0  0  0  0  0  0
   -0.8675    0.4975    0.0000 C   0  0  0  0  0  0  0  0  0  0  0  0
   -0.8675    1.5027    0.0000 C   0  0  0  0  0  0  0  0  0  0  0  0
    0.0000    2.0104    0.0000 C   0  0  0  0  0  0  0  0  0  0  0  0
   -1.7328   -0.0038    0.0000 C   0  0  0  0  0  0  0  0  0  0  0  0
   -2.5995    0.4950    0.0000 O   0  0  0  0  0  0  0  0  0  0  0  0
   -1.7313   -1.0038    0.0000 C   0  0  0  0  0  0  0  0  0  0  0  0
   -2.5966   -1.5050    0.0000 C   0  0  0  0  0  0  0  0  0  0  0  0
   -2.5952   -2.5050    0.0000 C   0  0  0  0  0  0  0  0  0  0  0  0
   -1.7225   -3.0038    0.0000 C   0  0  0  0  0  0  0  0  0  0  0  0
   -1.7210   -4.0038    0.0000 C   0  0  0  0  0  0  0  0  0  0  0  0
   -2.5833   -4.5101    0.0000 C   0  0  0  0  0  0  0  0  0  0  0  0
   -3.4561   -4.0114    0.0000 C   0  0  0  0  0  0  0  0  0  0  0  0
   -3.4664   -3.0063    0.0000 C   0  0  0  0  0  0  0  0  0  0  0  0
    5.2050    3.9899    0.0000 C   0  0  0  0  0  0  0  0  0  0  0  0
    5.2079    4.9899    0.0000 C   0  0  0  0  0  0  0  0  0  0  0  0
    6.0695    3.4874    0.0000 C   0  0  0  0  0  0  0  0  0  0  0  0
  1  2  1  0  0  0  0
  2  3  1  0  0  0  0
  2  4  1  0  0  0  0
  4  5  1  0  0  0  0
  5  6  1  0  0  0  0
  6  7  1  1  0  0  0
  6  8  1  0  0  0  0
  6  9  1  0  0  0  0
  9 10  1  0  0  0  0
 10 11  1  0  0  0  0
 11 16  2  0  0  0  0
 11 12  1  0  0  0  0
 12 13  2  0  0  0  0
 13 14  1  0  0  0  0
 14 15  2  0  0  0  0
 15 16  1  0  0  0  0
 14 17  1  0  0  0  0
 17 18  2  0  0  0  0
 17 19  1  0  0  0  0
 19 20  1  0  0  0  0
 20 21  1  0  0  0  0
 21 26  2  0  0  0  0
 21 22  1  0  0  0  0
 22 23  2  0  0  0  0
 23 24  1  0  0  0  0
 24 25  2  0  0  0  0
 25 26  1  0  0  0  0
  4 27  1  0  0  0  0
 27 28  1  0  0  0  0
 27 29  1  0  0  0  0
M  END
> <ID>
1591108

$$$$
1591109
  -OEChem-05171416412D

 30 31  0     1  0  0  0  0  0999 V2000
    6.0644   -0.5063    0.0000 C   0  0  0  0  0  0  0  0  0  0  0  0
    5.1976   -1.0050    0.0000 C   0  0  0  0  0  0  0  0  0  0  0  0
    4.3323   -0.5038    0.0000 C   0  0  0  0  0  0  0  0  0  0  0  0
    5.1962   -2.0050    0.0000 N   0  0  0  0  0  0  0  0  0  0  0  0
    4.3294   -2.5038    0.0000 C   0  0  0  0  0  0  0  0  0  0  0  0
    3.4641   -2.0025    0.0000 C   0  0  1  0  0  0  0  0  0  0  0  0
    3.9654   -1.1372    0.0000 H   0  0  0  0  0  0  0  0  0  0  0  0
    2.9629   -2.8678    0.0000 O   0  0  0  0  0  0  0  0  0  0  0  0
    2.5988   -1.5013    0.0000 C   0  0  0  0  0  0  0  0  0  0  0  0
    2.6003   -0.5013    0.0000 O   0  0  0  0  0  0  0  0  0  0  0  0
    1.7350    0.0000    0.0000 C   0  0  0  0  0  0  0  0  0  0  0  0
    0.8675   -0.4975    0.0000 C   0  0  0  0  0  0  0  0  0  0  0  0
    0.0000    0.0000    0.0000 C   0  0  0  0  0  0  0  0  0  0  0  0
   -0.0000    1.0052    0.0000 C   0  0  0  0  0  0  0  0  0  0  0  0
    0.8675    1.5129    0.0000 C   0  0  0  0  0  0  0  0  0  0  0  0
    1.7350    1.0052    0.0000 C   0  0  0  0  0  0  0  0  0  0  0  0
    2.6025    1.5026    0.0000 C   0  0  2  0  0  0  0  0  0  0  0  0
    2.1051    2.3701    0.0000 H   0  0  0  0  0  0  0  0  0  0  0  0
    3.0999    0.6351    0.0000 O   0  0  0  0  0  0  0  0  0  0  0  0
    3.4700    2.0001    0.0000 C   0  0  0  0  0  0  0  0  0  0  0  0
    3.4729    3.0001    0.0000 C   0  0  0  0  0  0  0  0  0  0  0  0
    4.3404    3.4975    0.0000 C   0  0  0  0  0  0  0  0  0  0  0  0
    4.3404    4.5027    0.0000 C   0  0  0  0  0  0  0  0  0  0  0  0
    5.2079    5.0002    0.0000 C   0  0  0  0  0  0  0  0  0  0  0  0
    6.0754    4.5027    0.0000 C   0  0  0  0  0  0  0  0  0  0  0  0
    6.0754    3.4975    0.0000 C   0  0  0  0  0  0  0  0  0  0  0  0
    5.2079    2.9898    0.0000 C   0  0  0  0  0  0  0  0  0  0  0  0
    6.0615   -2.5063    0.0000 C   0  0  0  0  0  0  0  0  0  0  0  0
    6.0600   -3.5063    0.0000 C   0  0  0  0  0  0  0  0  0  0  0  0
    6.9282   -2.0075    0.0000 C   0  0  0  0  0  0  0  0  0  0  0  0
  1  2  1  0  0  0  0
  2  3  1  0  0  0  0
  2  4  1  0  0  0  0
  4  5  1  0  0  0  0
  5  6  1  0  0  0  0
  6  7  1  6  0  0  0
  6  8  1  0  0  0  0
  6  9  1  0  0  0  0
  9 10  1  0  0  0  0
 10 11  1  0  0  0  0
 11 16  2  0  0  0  0
 11 12  1  0  0  0  0
 12 13  2  0  0  0  0
 13 14  1  0  0  0  0
 14 15  2  0  0  0  0
 15 16  1  0  0  0  0
 16 17  1  0  0  0  0
 17 18  1  6  0  0  0
 17 19  1  0  0  0  0
 17 20  1  0  0  0  0
 20 21  1  0  0  0  0
 21 22  1  0  0  0  0
 22 27  2  0  0  0  0
 22 23  1  0  0  0  0
 23 24  2  0  0  0  0
 24 25  1  0  0  0  0
 25 26  2  0  0  0  0
 26 27  1  0  0  0  0
  4 28  1  0  0  0  0
 28 29  1  0  0  0  0
 28 30  1  0  0  0  0
M  END
> <ID>
1591109

$$$$
1591110
  -OEChem-05171416412D

 31 32  0     1  0  0  0  0  0999 V2000
    1.1080    4.3680    0.0000 C   0  0  0  0  0  0  0  0  0  0  0  0
    2.1080    4.3651    0.0000 O   0  0  0  0  0  0  0  0  0  0  0  0
    2.6054    3.4976    0.0000 C   0  0  2  0  0  0  0  0  0  0  0  0
    3.1029    2.6301    0.0000 H   0  0  0  0  0  0  0  0  0  0  0  0
    1.7379    3.0001    0.0000 C   0  0  0  0  0  0  0  0  0  0  0  0
    1.7350    2.0001    0.0000 C   0  0  0  0  0  0  0  0  0  0  0  0
    0.8675    1.5027    0.0000 C   0  0  0  0  0  0  0  0  0  0  0  0
    0.8675    0.4975    0.0000 C   0  0  0  0  0  0  0  0  0  0  0  0
    0.0000    0.0000    0.0000 C   0  0  0  0  0  0  0  0  0  0  0  0
   -0.8675    0.4975    0.0000 C   0  0  0  0  0  0  0  0  0  0  0  0
   -0.8675    1.5027    0.0000 C   0  0  0  0  0  0  0  0  0  0  0  0
    0.0000    2.0104    0.0000 C   0  0  0  0  0  0  0  0  0  0  0  0
    3.4729    3.9950    0.0000 C   0  0  0  0  0  0  0  0  0  0  0  0
    4.3382    3.4937    0.0000 C   0  0  0  0  0  0  0  0  0  0  0  0
    5.2079    3.9874    0.0000 C   0  0  0  0  0  0  0  0  0  0  0  0
    5.2123    4.9926    0.0000 C   0  0  0  0  0  0  0  0  0  0  0  0
    4.3471    5.5041    0.0000 C   0  0  0  0  0  0  0  0  0  0  0  0
    3.4774    5.0002    0.0000 C   0  0  0  0  0  0  0  0  0  0  0  0
    2.6121    5.5015    0.0000 O   0  0  0  0  0  0  0  0  0  0  0  0
    2.6135    6.5015    0.0000 C   0  0  0  0  0  0  0  0  0  0  0  0
    1.7482    7.0027    0.0000 C   0  0  2  0  0  0  0  0  0  0  0  0
    2.2495    7.8680    0.0000 H   0  0  0  0  0  0  0  0  0  0  0  0
    1.2470    6.1374    0.0000 O   0  0  0  0  0  0  0  0  0  0  0  0
    0.8829    7.5040    0.0000 C   0  0  0  0  0  0  0  0  0  0  0  0
    0.8844    8.5040    0.0000 N   0  0  0  0  0  0  0  0  0  0  0  0
    1.7511    9.0027    0.0000 C   0  0  0  0  0  0  0  0  0  0  0  0
    2.6164    8.5015    0.0000 C   0  0  0  0  0  0  0  0  0  0  0  0
    1.7526   10.0027    0.0000 C   0  0  0  0  0  0  0  0  0  0  0  0
    0.0191    9.0052    0.0000 C   0  0  0  0  0  0  0  0  0  0  0  0
    0.0205   10.0052    0.0000 C   0  0  0  0  0  0  0  0  0  0  0  0
   -0.8477    8.5065    0.0000 C   0  0  0  0  0  0  0  0  0  0  0  0
  1  2  1  0  0  0  0
  2  3  1  0  0  0  0
  3  4  1  6  0  0  0
  3  5  1  0  0  0  0
  5  6  1  0  0  0  0
  6  7  1  0  0  0  0
  7 12  2  0  0  0  0
  7  8  1  0  0  0  0
  8  9  2  0  0  0  0
  9 10  1  0  0  0  0
 10 11  2  0  0  0  0
 11 12  1  0  0  0  0
  3 13  1  0  0  0  0
 13 18  2  0  0  0  0
 13 14  1  0  0  0  0
 14 15  2  0  0  0  0
 15 16  1  0  0  0  0
 16 17  2  0  0  0  0
 17 18  1  0  0  0  0
 18 19  1  0  0  0  0
 19 20  1  0  0  0  0
 20 21  1  0  0  0  0
 21 22  1  1  0  0  0
 21 23  1  0  0  0  0
 21 24  1  0  0  0  0
 24 25  1  0  0  0  0
 25 26  1  0  0  0  0
 26 27  1  0  0  0  0
 26 28  1  0  0  0  0
 25 29  1  0  0  0  0
 29 30  1  0  0  0  0
 29 31  1  0  0  0  0
M  END
> <ID>
1591110

$$$$
1591111
  -OEChem-05171416412D

 32 35  0     1  0  0  0  0  0999 V2000
    0.3660    4.3764    0.0000 O   0  0  0  0  0  0  0  0  0  0  0  0
    0.8660    3.5104    0.0000 C   0  0  1  0  0  0  0  0  0  0  0  0
    1.3660    2.6444    0.0000 H   0  0  0  0  0  0  0  0  0  0  0  0
    1.7321    4.0104    0.0000 C   0  0  0  0  0  0  0  0  0  0  0  0
    1.7321    5.0104    0.0000 O   0  0  0  0  0  0  0  0  0  0  0  0
    2.5981    5.5104    0.0000 C   0  0  0  0  0  0  0  0  0  0  0  0
    2.5995    6.5104    0.0000 C   0  0  0  0  0  0  0  0  0  0  0  0
    3.4634    7.0142    0.0000 C   0  0  0  0  0  0  0  0  0  0  0  0
    4.3347    6.5129    0.0000 C   0  0  0  0  0  0  0  0  0  0  0  0
    4.3420    5.5078    0.0000 C   0  0  0  0  0  0  0  0  0  0  0  0
    3.4693    5.0091    0.0000 C   0  0  0  0  0  0  0  0  0  0  0  0
    3.4678    4.0091    0.0000 C   0  0  0  0  0  0  0  0  0  0  0  0
    2.6011    3.5104    0.0000 O   0  0  0  0  0  0  0  0  0  0  0  0
    4.3331    3.5078    0.0000 C   0  0  0  0  0  0  0  0  0  0  0  0
    4.3316    2.5078    0.0000 C   0  0  0  0  0  0  0  0  0  0  0  0
    5.1969    2.0065    0.0000 C   0  0  0  0  0  0  0  0  0  0  0  0
    6.0720    2.5060    0.0000 C   0  0  0  0  0  0  0  0  0  0  0  0
    6.9415    2.0007    0.0000 C   0  0  0  0  0  0  0  0  0  0  0  0
    6.9358    0.9958    0.0000 C   0  0  0  0  0  0  0  0  0  0  0  0
    6.0683    0.4983    0.0000 C   0  0  0  0  0  0  0  0  0  0  0  0
    6.0607   -0.5033    0.0000 C   0  0  0  0  0  0  0  0  0  0  0  0
    5.1935   -1.0024    0.0000 C   0  0  0  0  0  0  0  0  0  0  0  0
    4.3247   -0.4960    0.0000 C   0  0  0  0  0  0  0  0  0  0  0  0
    4.3230    0.5096    0.0000 C   0  0  0  0  0  0  0  0  0  0  0  0
    5.1988    1.0036    0.0000 C   0  0  0  0  0  0  0  0  0  0  0  0
   -0.0000    3.0104    0.0000 C   0  0  0  0  0  0  0  0  0  0  0  0
   -0.0000    2.0104    0.0000 N   0  0  0  0  0  0  0  0  0  0  0  0
   -0.8675    1.5027    0.0000 C   0  0  0  0  0  0  0  0  0  0  0  0
   -0.8675    0.4975    0.0000 C   0  0  0  0  0  0  0  0  0  0  0  0
    0.0000    0.0000    0.0000 C   0  0  0  0  0  0  0  0  0  0  0  0
    0.8675    0.4975    0.0000 C   0  0  0  0  0  0  0  0  0  0  0  0
    0.8675    1.5027    0.0000 C   0  0  0  0  0  0  0  0  0  0  0  0
  1  2  1  0  0  0  0
  2  3  1  6  0  0  0
  2  4  1  0  0  0  0
  4  5  1  0  0  0  0
  5  6  1  0  0  0  0
  6 11  2  0  0  0  0
  6  7  1  0  0  0  0
  7  8  2  0  0  0  0
  8  9  1  0  0  0  0
  9 10  2  0  0  0  0
 10 11  1  0  0  0  0
 11 12  1  0  0  0  0
 12 13  2  0  0  0  0
 12 14  1  0  0  0  0
 14 15  1  0  0  0  0
 15 16  1  0  0  0  0
 16 25  2  0  0  0  0
 16 17  1  0  0  0  0
 17 18  2  0  0  0  0
 18 19  1  0  0  0  0
 19 20  2  0  0  0  0
 20 25  1  0  0  0  0
 20 21  1  0  0  0  0
 21 22  2  0  0  0  0
 22 23  1  0  0  0  0
 23 24  2  0  0  0  0
 24 25  1  0  0  0  0
  2 26  1  0  0  0  0
 26 27  1  0  0  0  0
 27 32  1  0  0  0  0
 27 28  1  0  0  0  0
 28 29  1  0  0  0  0
 29 30  1  0  0  0  0
 30 31  1  0  0  0  0
 31 32  1  0  0  0  0
M  END
> <ID>
1591111

$$$$
1591112
  -OEChem-05171416412D

 37 40  0     1  0  0  0  0  0999 V2000
    2.4582   -1.0020    0.0000 O   0  0  0  0  0  0  0  0  0  0  0  0
    3.4582   -1.0050    0.0000 C   0  0  2  0  0  0  0  0  0  0  0  0
    4.4582   -1.0079    0.0000 H   0  0  0  0  0  0  0  0  0  0  0  0
    3.4611   -0.0050    0.0000 C   0  0  0  0  0  0  0  0  0  0  0  0
    2.5966    0.4976    0.0000 N   0  0  0  0  0  0  0  0  0  0  0  0
    2.5995    1.4976    0.0000 C   0  0  0  0  0  0  0  0  0  0  0  0
    1.7350    2.0001    0.0000 C   0  0  0  0  0  0  0  0  0  0  0  0
    0.8675    1.5027    0.0000 C   0  0  0  0  0  0  0  0  0  0  0  0
    0.8675    0.4975    0.0000 C   0  0  0  0  0  0  0  0  0  0  0  0
    0.0000    0.0000    0.0000 C   0  0  0  0  0  0  0  0  0  0  0  0
   -0.8675    0.4975    0.0000 C   0  0  0  0  0  0  0  0  0  0  0  0
   -0.8675    1.5027    0.0000 C   0  0  0  0  0  0  0  0  0  0  0  0
    0.0000    2.0104    0.0000 C   0  0  0  0  0  0  0  0  0  0  0  0
    1.7379    3.0001    0.0000 C   0  0  0  0  0  0  0  0  0  0  0  0
    0.8674    3.5027    0.0000 C   0  0  0  0  0  0  0  0  0  0  0  0
    0.8703    4.5028    0.0000 C   0  0  0  0  0  0  0  0  0  0  0  0
    1.7349    5.0053    0.0000 C   0  0  0  0  0  0  0  0  0  0  0  0
    2.6054    4.5027    0.0000 C   0  0  0  0  0  0  0  0  0  0  0  0
    2.6114    3.4976    0.0000 C   0  0  0  0  0  0  0  0  0  0  0  0
    3.4552   -2.0050    0.0000 C   0  0  0  0  0  0  0  0  0  0  0  0
    4.3198   -2.5075    0.0000 O   0  0  0  0  0  0  0  0  0  0  0  0
    4.3168   -3.5075    0.0000 C   0  0  0  0  0  0  0  0  0  0  0  0
    5.1807   -4.0113    0.0000 C   0  0  0  0  0  0  0  0  0  0  0  0
    5.1821   -5.0114    0.0000 C   0  0  0  0  0  0  0  0  0  0  0  0
    4.3108   -5.5126    0.0000 C   0  0  0  0  0  0  0  0  0  0  0  0
    3.4381   -5.0139    0.0000 C   0  0  0  0  0  0  0  0  0  0  0  0
    3.4456   -4.0088    0.0000 C   0  0  0  0  0  0  0  0  0  0  0  0
    2.5818   -3.5049    0.0000 C   0  0  0  0  0  0  0  0  0  0  0  0
    2.5862   -2.5050    0.0000 O   0  0  0  0  0  0  0  0  0  0  0  0
    1.7135   -4.0011    0.0000 C   0  0  0  0  0  0  0  0  0  0  0  0
    0.8497   -3.4972    0.0000 C   0  0  0  0  0  0  0  0  0  0  0  0
   -0.0185   -3.9934    0.0000 C   0  0  0  0  0  0  0  0  0  0  0  0
   -0.0200   -4.9986    0.0000 C   0  0  0  0  0  0  0  0  0  0  0  0
   -0.8883   -5.4948    0.0000 C   0  0  0  0  0  0  0  0  0  0  0  0
   -1.7550   -4.9960    0.0000 C   0  0  0  0  0  0  0  0  0  0  0  0
   -1.7535   -3.9908    0.0000 C   0  0  0  0  0  0  0  0  0  0  0  0
   -0.8853   -3.4844    0.0000 C   0  0  0  0  0  0  0  0  0  0  0  0
  1  2  1  0  0  0  0
  2  3  1  1  0  0  0
  2  4  1  0  0  0  0
  4  5  1  0  0  0  0
  5  6  1  0  0  0  0
  6  7  1  0  0  0  0
  7  8  1  0  0  0  0
  8 13  2  0  0  0  0
  8  9  1  0  0  0  0
  9 10  2  0  0  0  0
 10 11  1  0  0  0  0
 11 12  2  0  0  0  0
 12 13  1  0  0  0  0
  7 14  1  0  0  0  0
 14 19  2  0  0  0  0
 14 15  1  0  0  0  0
 15 16  2  0  0  0  0
 16 17  1  0  0  0  0
 17 18  2  0  0  0  0
 18 19  1  0  0  0  0
  2 20  1  0  0  0  0
 20 21  1  0  0  0  0
 21 22  1  0  0  0  0
 22 27  2  0  0  0  0
 22 23  1  0  0  0  0
 23 24  2  0  0  0  0
 24 25  1  0  0  0  0
 25 26  2  0  0  0  0
 26 27  1  0  0  0  0
 27 28  1  0  0  0  0
 28 29  2  0  0  0  0
 28 30  1  0  0  0  0
 30 31  1  0  0  0  0
 31 32  1  0  0  0  0
 32 37  2  0  0  0  0
 32 33  1  0  0  0  0
 33 34  2  0  0  0  0
 34 35  1  0  0  0  0
 35 36  2  0  0  0  0
 36 37  1  0  0  0  0
M  END
> <ID>
1591112

$$$$
1591113
  -OEChem-05171416412D

 36 39  0     1  0  0  0  0  0999 V2000
    3.8290    0.6279    0.0000 O   0  0  0  0  0  0  0  0  0  0  0  0
    4.3316    1.4925    0.0000 C   0  0  2  0  0  0  0  0  0  0  0  0
    4.8341    2.3570    0.0000 H   0  0  0  0  0  0  0  0  0  0  0  0
    3.4670    1.9950    0.0000 C   0  0  0  0  0  0  0  0  0  0  0  0
    2.5995    1.4976    0.0000 N   0  0  0  0  0  0  0  0  0  0  0  0
    1.7350    2.0001    0.0000 C   0  0  0  0  0  0  0  0  0  0  0  0
    0.8675    1.5027    0.0000 C   0  0  0  0  0  0  0  0  0  0  0  0
    0.8675    0.4975    0.0000 C   0  0  0  0  0  0  0  0  0  0  0  0
    0.0000    0.0000    0.0000 C   0  0  0  0  0  0  0  0  0  0  0  0
   -0.8675    0.4975    0.0000 C   0  0  0  0  0  0  0  0  0  0  0  0
   -0.8675    1.5027    0.0000 C   0  0  0  0  0  0  0  0  0  0  0  0
    0.0000    2.0104    0.0000 C   0  0  0  0  0  0  0  0  0  0  0  0
    1.7379    3.0001    0.0000 C   0  0  0  0  0  0  0  0  0  0  0  0
    0.8674    3.5027    0.0000 C   0  0  0  0  0  0  0  0  0  0  0  0
    0.8703    4.5028    0.0000 C   0  0  0  0  0  0  0  0  0  0  0  0
    1.7349    5.0053    0.0000 C   0  0  0  0  0  0  0  0  0  0  0  0
    2.6054    4.5027    0.0000 C   0  0  0  0  0  0  0  0  0  0  0  0
    2.6114    3.4976    0.0000 C   0  0  0  0  0  0  0  0  0  0  0  0
    5.1961    0.9899    0.0000 C   0  0  0  0  0  0  0  0  0  0  0  0
    6.0636    1.4874    0.0000 O   0  0  0  0  0  0  0  0  0  0  0  0
    6.9282    0.9848    0.0000 C   0  0  0  0  0  0  0  0  0  0  0  0
    7.7964    1.4810    0.0000 C   0  0  0  0  0  0  0  0  0  0  0  0
    8.6632    0.9822    0.0000 C   0  0  0  0  0  0  0  0  0  0  0  0
    8.6617   -0.0230    0.0000 C   0  0  0  0  0  0  0  0  0  0  0  0
    7.7934   -0.5294    0.0000 C   0  0  0  0  0  0  0  0  0  0  0  0
    6.9267   -0.0204    0.0000 C   0  0  0  0  0  0  0  0  0  0  0  0
    6.0584   -0.5165    0.0000 C   0  0  0  0  0  0  0  0  0  0  0  0
    5.1946   -0.0127    0.0000 O   0  0  0  0  0  0  0  0  0  0  0  0
    6.0540   -1.5165    0.0000 C   0  0  0  0  0  0  0  0  0  0  0  0
    5.1857   -2.0127    0.0000 C   0  0  0  0  0  0  0  0  0  0  0  0
    5.1813   -3.0126    0.0000 C   0  0  0  0  0  0  0  0  0  0  0  0
    6.0511   -3.5166    0.0000 C   0  0  0  0  0  0  0  0  0  0  0  0
    6.0467   -4.5166    0.0000 C   0  0  0  0  0  0  0  0  0  0  0  0
    5.1813   -5.0178    0.0000 C   0  0  0  0  0  0  0  0  0  0  0  0
    4.3115   -4.5139    0.0000 C   0  0  0  0  0  0  0  0  0  0  0  0
    4.3071   -3.5088    0.0000 C   0  0  0  0  0  0  0  0  0  0  0  0
  1  2  1  0  0  0  0
  2  3  1  1  0  0  0
  2  4  1  0  0  0  0
  4  5  1  0  0  0  0
  5  6  1  0  0  0  0
  6  7  1  0  0  0  0
  7 12  2  0  0  0  0
  7  8  1  0  0  0  0
  8  9  2  0  0  0  0
  9 10  1  0  0  0  0
 10 11  2  0  0  0  0
 11 12  1  0  0  0  0
  6 13  1  0  0  0  0
 13 18  2  0  0  0  0
 13 14  1  0  0  0  0
 14 15  2  0  0  0  0
 15 16  1  0  0  0  0
 16 17  2  0  0  0  0
 17 18  1  0  0  0  0
  2 19  1  0  0  0  0
 19 20  1  0  0  0  0
 20 21  1  0  0  0  0
 21 26  2  0  0  0  0
 21 22  1  0  0  0  0
 22 23  2  0  0  0  0
 23 24  1  0  0  0  0
 24 25  2  0  0  0  0
 25 26  1  0  0  0  0
 26 27  1  0  0  0  0
 27 28  2  0  0  0  0
 27 29  1  0  0  0  0
 29 30  1  0  0  0  0
 30 31  1  0  0  0  0
 31 36  2  0  0  0  0
 31 32  1  0  0  0  0
 32 33  2  0  0  0  0
 33 34  1  0  0  0  0
 34 35  2  0  0  0  0
 35 36  1  0  0  0  0
M  END
> <ID>
1591113

$$$$
1591114
  -OEChem-05171416412D

 42 46  0     1  0  0  0  0  0999 V2000
   -2.2517    5.1411    0.0000 O   0  0  0  0  0  0  0  0  0  0  0  0
   -1.7554    6.0092    0.0000 C   0  0  2  0  0  0  0  0  0  0  0  0
   -1.2590    6.8773    0.0000 H   0  0  0  0  0  0  0  0  0  0  0  0
   -2.6235    6.5055    0.0000 C   0  0  0  0  0  0  0  0  0  0  0  0
   -3.4874    6.0019    0.0000 N   0  0  0  0  0  0  0  0  0  0  0  0
   -4.3555    6.4983    0.0000 C   0  0  0  0  0  0  0  0  0  0  0  0
   -5.2194    5.9947    0.0000 C   0  0  0  0  0  0  0  0  0  0  0  0
   -6.0875    6.4911    0.0000 C   0  0  0  0  0  0  0  0  0  0  0  0
   -6.9515    5.9875    0.0000 C   0  0  0  0  0  0  0  0  0  0  0  0
   -6.9443    4.9823    0.0000 C   0  0  0  0  0  0  0  0  0  0  0  0
   -7.8082    4.4786    0.0000 C   0  0  0  0  0  0  0  0  0  0  0  0
   -8.6793    4.9700    0.0000 C   0  0  0  0  0  0  0  0  0  0  0  0
   -8.6864    5.9751    0.0000 C   0  0  0  0  0  0  0  0  0  0  0  0
   -7.8226    6.4890    0.0000 C   0  0  0  0  0  0  0  0  0  0  0  0
   -6.0917    7.4911    0.0000 C   0  0  0  0  0  0  0  0  0  0  0  0
   -6.9658    7.9875    0.0000 C   0  0  0  0  0  0  0  0  0  0  0  0
   -6.9700    8.9875    0.0000 C   0  0  0  0  0  0  0  0  0  0  0  0
   -6.1090    9.4962    0.0000 C   0  0  0  0  0  0  0  0  0  0  0  0
   -5.2349    8.9998    0.0000 C   0  0  0  0  0  0  0  0  0  0  0  0
   -5.2218    7.9947    0.0000 C   0  0  0  0  0  0  0  0  0  0  0  0
   -0.8873    5.5128    0.0000 C   0  0  0  0  0  0  0  0  0  0  0  0
   -0.0233    6.0164    0.0000 O   0  0  0  0  0  0  0  0  0  0  0  0
    0.8448    5.5200    0.0000 C   0  0  0  0  0  0  0  0  0  0  0  0
    1.7095    6.0224    0.0000 C   0  0  0  0  0  0  0  0  0  0  0  0
    2.5798    5.5298    0.0000 C   0  0  0  0  0  0  0  0  0  0  0  0
    2.5854    4.5246    0.0000 C   0  0  0  0  0  0  0  0  0  0  0  0
    1.7208    4.0120    0.0000 C   0  0  0  0  0  0  0  0  0  0  0  0
    0.8504    4.5148    0.0000 C   0  0  0  0  0  0  0  0  0  0  0  0
   -0.0143    4.0125    0.0000 C   0  0  0  0  0  0  0  0  0  0  0  0
   -0.8816    4.5102    0.0000 O   0  0  0  0  0  0  0  0  0  0  0  0
   -0.0116    3.0125    0.0000 C   0  0  0  0  0  0  0  0  0  0  0  0
   -0.8763    2.5102    0.0000 C   0  0  0  0  0  0  0  0  0  0  0  0
   -0.8736    1.5102    0.0000 C   0  0  0  0  0  0  0  0  0  0  0  0
   -0.0013    1.0057    0.0000 C   0  0  0  0  0  0  0  0  0  0  0  0
    0.0000    0.0000    0.0000 C   0  0  0  0  0  0  0  0  0  0  0  0
   -0.8710   -0.5011    0.0000 C   0  0  0  0  0  0  0  0  0  0  0  0
   -1.7377   -0.0022    0.0000 C   0  0  0  0  0  0  0  0  0  0  0  0
   -2.6069   -0.5000    0.0000 C   0  0  0  0  0  0  0  0  0  0  0  0
   -3.4748   -0.0022    0.0000 C   0  0  0  0  0  0  0  0  0  0  0  0
   -3.4748    1.0035    0.0000 C   0  0  0  0  0  0  0  0  0  0  0  0
   -2.6069    1.5113    0.0000 C   0  0  0  0  0  0  0  0  0  0  0  0
   -1.7390    1.0035    0.0000 C   0  0  0  0  0  0  0  0  0  0  0  0
  1  2  1  0  0  0  0
  2  3  1  1  0  0  0
  2  4  1  0  0  0  0
  4  5  1  0  0  0  0
  5  6  1  0  0  0  0
  6  7  1  0  0  0  0
  7  8  1  0  0  0  0
  8  9  1  0  0  0  0
  9 14  2  0  0  0  0
  9 10  1  0  0  0  0
 10 11  2  0  0  0  0
 11 12  1  0  0  0  0
 12 13  2  0  0  0  0
 13 14  1  0  0  0  0
  8 15  1  0  0  0  0
 15 20  2  0  0  0  0
 15 16  1  0  0  0  0
 16 17  2  0  0  0  0
 17 18  1  0  0  0  0
 18 19  2  0  0  0  0
 19 20  1  0  0  0  0
  2 21  1  0  0  0  0
 21 22  1  0  0  0  0
 22 23  1  0  0  0  0
 23 28  2  0  0  0  0
 23 24  1  0  0  0  0
 24 25  2  0  0  0  0
 25 26  1  0  0  0  0
 26 27  2  0  0  0  0
 27 28  1  0  0  0  0
 28 29  1  0  0  0  0
 29 30  2  0  0  0  0
 29 31  1  0  0  0  0
 31 32  1  0  0  0  0
 32 33  1  0  0  0  0
 33 42  2  0  0  0  0
 33 34  1  0  0  0  0
 34 35  2  0  0  0  0
 35 36  1  0  0  0  0
 36 37  2  0  0  0  0
 37 42  1  0  0  0  0
 37 38  1  0  0  0  0
 38 39  2  0  0  0  0
 39 40  1  0  0  0  0
 40 41  2  0  0  0  0
 41 42  1  0  0  0  0
M  END
> <ID>
1591114

$$$$
372358
  -OEChem-05171416412D

 26 28  0     0  0  0  0  0  0999 V2000
   -3.4678    5.0091    0.0000 O   0  0  0  0  0  0  0  0  0  0  0  0
   -3.4693    6.0091    0.0000 C   0  0  0  0  0  0  0  0  0  0  0  0
   -4.3361    6.5078    0.0000 C   0  0  0  0  0  0  0  0  0  0  0  0
   -5.2014    6.0065    0.0000 C   0  0  0  0  0  0  0  0  0  0  0  0
   -6.0682    6.5052    0.0000 C   0  0  0  0  0  0  0  0  0  0  0  0
   -6.9364    5.9988    0.0000 C   0  0  0  0  0  0  0  0  0  0  0  0
   -7.8033    6.4974    0.0000 C   0  0  0  0  0  0  0  0  0  0  0  0
   -7.8106    7.4974    0.0000 C   0  0  0  0  0  0  0  0  0  0  0  0
   -6.9423    8.0039    0.0000 C   0  0  0  0  0  0  0  0  0  0  0  0
   -6.0667    7.5104    0.0000 C   0  0  0  0  0  0  0  0  0  0  0  0
   -2.6041    6.5104    0.0000 C   0  0  0  0  0  0  0  0  0  0  0  0
   -2.6041    7.5105    0.0000 C   0  0  0  0  0  0  0  0  0  0  0  0
   -1.7410    8.0155    0.0000 C   0  0  0  0  0  0  0  0  0  0  0  0
   -0.8690    7.5155    0.0000 C   0  0  0  0  0  0  0  0  0  0  0  0
   -0.8601    6.5104    0.0000 C   0  0  0  0  0  0  0  0  0  0  0  0
   -1.7321    6.0104    0.0000 C   0  0  0  0  0  0  0  0  0  0  0  0
   -1.7321    5.0104    0.0000 O   0  0  0  0  0  0  0  0  0  0  0  0
   -0.8660    4.5104    0.0000 C   0  0  0  0  0  0  0  0  0  0  0  0
   -0.8660    3.5104    0.0000 C   0  0  0  0  0  0  0  0  0  0  0  0
   -0.0000    3.0104    0.0000 C   0  0  0  0  0  0  0  0  0  0  0  0
   -0.0000    2.0104    0.0000 N   0  0  0  0  0  0  0  0  0  0  0  0
   -0.8675    1.5027    0.0000 C   0  0  0  0  0  0  0  0  0  0  0  0
   -0.8675    0.4975    0.0000 C   0  0  0  0  0  0  0  0  0  0  0  0
    0.0000    0.0000    0.0000 C   0  0  0  0  0  0  0  0  0  0  0  0
    0.8675    0.4975    0.0000 C   0  0  0  0  0  0  0  0  0  0  0  0
    0.8675    1.5027    0.0000 C   0  0  0  0  0  0  0  0  0  0  0  0
  1  2  2  0  0  0  0
  2  3  1  0  0  0  0
  3  4  1  0  0  0  0
  4  5  1  0  0  0  0
  5 10  2  0  0  0  0
  5  6  1  0  0  0  0
  6  7  2  0  0  0  0
  7  8  1  0  0  0  0
  8  9  2  0  0  0  0
  9 10  1  0  0  0  0
  2 11  1  0  0  0  0
 11 16  2  0  0  0  0
 11 12  1  0  0  0  0
 12 13  2  0  0  0  0
 13 14  1  0  0  0  0
 14 15  2  0  0  0  0
 15 16  1  0  0  0  0
 16 17  1  0  0  0  0
 17 18  1  0  0  0  0
 18 19  1  0  0  0  0
 19 20  1  0  0  0  0
 20 21  1  0  0  0  0
 21 26  1  0  0  0  0
 21 22  1  0  0  0  0
 22 23  1  0  0  0  0
 23 24  1  0  0  0  0
 24 25  1  0  0  0  0
 25 26  1  0  0  0  0
M  END
> <ID>
372358

$$$$
372364
  -OEChem-05171416412D

 25 27  0     0  0  0  0  0  0999 V2000
   -0.0030    6.0130    0.0000 O   0  0  0  0  0  0  0  0  0  0  0  0
    0.8623    6.5143    0.0000 C   0  0  0  0  0  0  0  0  0  0  0  0
    0.8608    7.5143    0.0000 C   0  0  0  0  0  0  0  0  0  0  0  0
   -0.0060    8.0130    0.0000 C   0  0  0  0  0  0  0  0  0  0  0  0
   -0.0075    9.0130    0.0000 C   0  0  0  0  0  0  0  0  0  0  0  0
   -0.8802    9.5117    0.0000 C   0  0  0  0  0  0  0  0  0  0  0  0
   -0.8818   10.5117    0.0000 C   0  0  0  0  0  0  0  0  0  0  0  0
   -0.0194   11.0181    0.0000 C   0  0  0  0  0  0  0  0  0  0  0  0
    0.8533   10.5194    0.0000 C   0  0  0  0  0  0  0  0  0  0  0  0
    0.8637    9.5143    0.0000 C   0  0  0  0  0  0  0  0  0  0  0  0
    1.7291    6.0156    0.0000 C   0  0  0  0  0  0  0  0  0  0  0  0
    2.5951    6.5157    0.0000 C   0  0  0  0  0  0  0  0  0  0  0  0
    3.4641    6.0207    0.0000 C   0  0  0  0  0  0  0  0  0  0  0  0
    3.4670    5.0155    0.0000 C   0  0  0  0  0  0  0  0  0  0  0  0
    2.6010    4.5053    0.0000 C   0  0  0  0  0  0  0  0  0  0  0  0
    1.7321    5.0104    0.0000 C   0  0  0  0  0  0  0  0  0  0  0  0
    0.8660    4.5104    0.0000 O   0  0  0  0  0  0  0  0  0  0  0  0
    0.8660    3.5104    0.0000 C   0  0  0  0  0  0  0  0  0  0  0  0
   -0.0000    3.0104    0.0000 C   0  0  0  0  0  0  0  0  0  0  0  0
   -0.0000    2.0104    0.0000 N   0  0  0  0  0  0  0  0  0  0  0  0
   -0.8675    1.5027    0.0000 C   0  0  0  0  0  0  0  0  0  0  0  0
   -0.8675    0.4975    0.0000 C   0  0  0  0  0  0  0  0  0  0  0  0
    0.0000    0.0000    0.0000 C   0  0  0  0  0  0  0  0  0  0  0  0
    0.8675    0.4975    0.0000 C   0  0  0  0  0  0  0  0  0  0  0  0
    0.8675    1.5027    0.0000 C   0  0  0  0  0  0  0  0  0  0  0  0
  1  2  2  0  0  0  0
  2  3  1  0  0  0  0
  3  4  1  0  0  0  0
  4  5  1  0  0  0  0
  5 10  2  0  0  0  0
  5  6  1  0  0  0  0
  6  7  2  0  0  0  0
  7  8  1  0  0  0  0
  8  9  2  0  0  0  0
  9 10  1  0  0  0  0
  2 11  1  0  0  0  0
 11 16  2  0  0  0  0
 11 12  1  0  0  0  0
 12 13  2  0  0  0  0
 13 14  1  0  0  0  0
 14 15  2  0  0  0  0
 15 16  1  0  0  0  0
 16 17  1  0  0  0  0
 17 18  1  0  0  0  0
 18 19  1  0  0  0  0
 19 20  1  0  0  0  0
 20 25  1  0  0  0  0
 20 21  1  0  0  0  0
 21 22  1  0  0  0  0
 22 23  1  0  0  0  0
 23 24  1  0  0  0  0
 24 25  1  0  0  0  0
M  END
> <ID>
372364

$$$$
372365
  -OEChem-05171416412D

 27 29  0     0  0  0  0  0  0999 V2000
    0.8631    7.5130    0.0000 O   0  0  0  0  0  0  0  0  0  0  0  0
    1.7283    8.0143    0.0000 C   0  0  0  0  0  0  0  0  0  0  0  0
    1.7268    9.0143    0.0000 C   0  0  0  0  0  0  0  0  0  0  0  0
    0.8601    9.5130    0.0000 C   0  0  0  0  0  0  0  0  0  0  0  0
    0.8586   10.5130    0.0000 C   0  0  0  0  0  0  0  0  0  0  0  0
   -0.0142   11.0117    0.0000 C   0  0  0  0  0  0  0  0  0  0  0  0
   -0.0157   12.0117    0.0000 C   0  0  0  0  0  0  0  0  0  0  0  0
    0.8466   12.5181    0.0000 C   0  0  0  0  0  0  0  0  0  0  0  0
    1.7194   12.0194    0.0000 C   0  0  0  0  0  0  0  0  0  0  0  0
    1.7298   11.0143    0.0000 C   0  0  0  0  0  0  0  0  0  0  0  0
    2.5951    7.5156    0.0000 C   0  0  0  0  0  0  0  0  0  0  0  0
    3.4611    8.0157    0.0000 C   0  0  0  0  0  0  0  0  0  0  0  0
    4.3301    7.5207    0.0000 C   0  0  0  0  0  0  0  0  0  0  0  0
    4.3331    6.5155    0.0000 C   0  0  0  0  0  0  0  0  0  0  0  0
    3.4671    6.0053    0.0000 C   0  0  0  0  0  0  0  0  0  0  0  0
    2.5981    6.5104    0.0000 C   0  0  0  0  0  0  0  0  0  0  0  0
    1.7321    6.0104    0.0000 O   0  0  0  0  0  0  0  0  0  0  0  0
    1.7321    5.0104    0.0000 C   0  0  0  0  0  0  0  0  0  0  0  0
    0.8660    4.5104    0.0000 C   0  0  0  0  0  0  0  0  0  0  0  0
    0.8660    3.5104    0.0000 C   0  0  0  0  0  0  0  0  0  0  0  0
   -0.0000    3.0104    0.0000 C   0  0  0  0  0  0  0  0  0  0  0  0
   -0.0000    2.0104    0.0000 N   0  0  0  0  0  0  0  0  0  0  0  0
   -0.8675    1.5027    0.0000 C   0  0  0  0  0  0  0  0  0  0  0  0
   -0.8675    0.4975    0.0000 C   0  0  0  0  0  0  0  0  0  0  0  0
    0.0000    0.0000    0.0000 C   0  0  0  0  0  0  0  0  0  0  0  0
    0.8675    0.4975    0.0000 C   0  0  0  0  0  0  0  0  0  0  0  0
    0.8675    1.5027    0.0000 C   0  0  0  0  0  0  0  0  0  0  0  0
  1  2  2  0  0  0  0
  2  3  1  0  0  0  0
  3  4  1  0  0  0  0
  4  5  1  0  0  0  0
  5 10  2  0  0  0  0
  5  6  1  0  0  0  0
  6  7  2  0  0  0  0
  7  8  1  0  0  0  0
  8  9  2  0  0  0  0
  9 10  1  0  0  0  0
  2 11  1  0  0  0  0
 11 16  2  0  0  0  0
 11 12  1  0  0  0  0
 12 13  2  0  0  0  0
 13 14  1  0  0  0  0
 14 15  2  0  0  0  0
 15 16  1  0  0  0  0
 16 17  1  0  0  0  0
 17 18  1  0  0  0  0
 18 19  1  0  0  0  0
 19 20  1  0  0  0  0
 20 21  1  0  0  0  0
 21 22  1  0  0  0  0
 22 27  1  0  0  0  0
 22 23  1  0  0  0  0
 23 24  1  0  0  0  0
 24 25  1  0  0  0  0
 25 26  1  0  0  0  0
 26 27  1  0  0  0  0
M  END
> <ID>
372365

$$$$
372370
  -OEChem-05171416412D

 28 30  0     0  0  0  0  0  0999 V2000
   -4.3339    6.5091    0.0000 O   0  0  0  0  0  0  0  0  0  0  0  0
   -4.3354    7.5091    0.0000 C   0  0  0  0  0  0  0  0  0  0  0  0
   -5.2021    8.0078    0.0000 C   0  0  0  0  0  0  0  0  0  0  0  0
   -6.0674    7.5065    0.0000 C   0  0  0  0  0  0  0  0  0  0  0  0
   -6.9342    8.0052    0.0000 C   0  0  0  0  0  0  0  0  0  0  0  0
   -7.8025    7.4988    0.0000 C   0  0  0  0  0  0  0  0  0  0  0  0
   -8.6693    7.9974    0.0000 C   0  0  0  0  0  0  0  0  0  0  0  0
   -8.6766    8.9974    0.0000 C   0  0  0  0  0  0  0  0  0  0  0  0
   -7.8084    9.5039    0.0000 C   0  0  0  0  0  0  0  0  0  0  0  0
   -6.9327    9.0104    0.0000 C   0  0  0  0  0  0  0  0  0  0  0  0
   -3.4701    8.0104    0.0000 C   0  0  0  0  0  0  0  0  0  0  0  0
   -3.4701    9.0105    0.0000 C   0  0  0  0  0  0  0  0  0  0  0  0
   -2.6070    9.5155    0.0000 C   0  0  0  0  0  0  0  0  0  0  0  0
   -1.7350    9.0155    0.0000 C   0  0  0  0  0  0  0  0  0  0  0  0
   -1.7261    8.0104    0.0000 C   0  0  0  0  0  0  0  0  0  0  0  0
   -2.5981    7.5104    0.0000 C   0  0  0  0  0  0  0  0  0  0  0  0
   -2.5981    6.5104    0.0000 O   0  0  0  0  0  0  0  0  0  0  0  0
   -1.7321    6.0104    0.0000 C   0  0  0  0  0  0  0  0  0  0  0  0
   -1.7321    5.0104    0.0000 C   0  0  0  0  0  0  0  0  0  0  0  0
   -0.8660    4.5104    0.0000 C   0  0  0  0  0  0  0  0  0  0  0  0
   -0.8660    3.5104    0.0000 C   0  0  0  0  0  0  0  0  0  0  0  0
   -0.0000    3.0104    0.0000 C   0  0  0  0  0  0  0  0  0  0  0  0
   -0.0000    2.0104    0.0000 N   0  0  0  0  0  0  0  0  0  0  0  0
   -0.8675    1.5027    0.0000 C   0  0  0  0  0  0  0  0  0  0  0  0
   -0.8675    0.4975    0.0000 C   0  0  0  0  0  0  0  0  0  0  0  0
    0.0000    0.0000    0.0000 C   0  0  0  0  0  0  0  0  0  0  0  0
    0.8675    0.4975    0.0000 C   0  0  0  0  0  0  0  0  0  0  0  0
    0.8675    1.5027    0.0000 C   0  0  0  0  0  0  0  0  0  0  0  0
  1  2  2  0  0  0  0
  2  3  1  0  0  0  0
  3  4  1  0  0  0  0
  4  5  1  0  0  0  0
  5 10  2  0  0  0  0
  5  6  1  0  0  0  0
  6  7  2  0  0  0  0
  7  8  1  0  0  0  0
  8  9  2  0  0  0  0
  9 10  1  0  0  0  0
  2 11  1  0  0  0  0
 11 16  2  0  0  0  0
 11 12  1  0  0  0  0
 12 13  2  0  0  0  0
 13 14  1  0  0  0  0
 14 15  2  0  0  0  0
 15 16  1  0  0  0  0
 16 17  1  0  0  0  0
 17 18  1  0  0  0  0
 18 19  1  0  0  0  0
 19 20  1  0  0  0  0
 20 21  1  0  0  0  0
 21 22  1  0  0  0  0
 22 23  1  0  0  0  0
 23 28  1  0  0  0  0
 23 24  1  0  0  0  0
 24 25  1  0  0  0  0
 25 26  1  0  0  0  0
 26 27  1  0  0  0  0
 27 28  1  0  0  0  0
M  END
> <ID>
372370

$$$$
372371
  -OEChem-05171416412D

 29 31  0     0  0  0  0  0  0999 V2000
    1.7291    9.0130    0.0000 O   0  0  0  0  0  0  0  0  0  0  0  0
    2.5944    9.5143    0.0000 C   0  0  0  0  0  0  0  0  0  0  0  0
    2.5929   10.5143    0.0000 C   0  0  0  0  0  0  0  0  0  0  0  0
    1.7261   11.0130    0.0000 C   0  0  0  0  0  0  0  0  0  0  0  0
    1.7246   12.0130    0.0000 C   0  0  0  0  0  0  0  0  0  0  0  0
    0.8518   12.5117    0.0000 C   0  0  0  0  0  0  0  0  0  0  0  0
    0.8503   13.5117    0.0000 C   0  0  0  0  0  0  0  0  0  0  0  0
    1.7126   14.0181    0.0000 C   0  0  0  0  0  0  0  0  0  0  0  0
    2.5854   13.5194    0.0000 C   0  0  0  0  0  0  0  0  0  0  0  0
    2.5958   12.5143    0.0000 C   0  0  0  0  0  0  0  0  0  0  0  0
    3.4611    9.0156    0.0000 C   0  0  0  0  0  0  0  0  0  0  0  0
    4.3272    9.5157    0.0000 C   0  0  0  0  0  0  0  0  0  0  0  0
    5.1961    9.0207    0.0000 C   0  0  0  0  0  0  0  0  0  0  0  0
    5.1991    8.0155    0.0000 C   0  0  0  0  0  0  0  0  0  0  0  0
    4.3331    7.5053    0.0000 C   0  0  0  0  0  0  0  0  0  0  0  0
    3.4641    8.0104    0.0000 C   0  0  0  0  0  0  0  0  0  0  0  0
    2.5981    7.5104    0.0000 O   0  0  0  0  0  0  0  0  0  0  0  0
    2.5981    6.5104    0.0000 C   0  0  0  0  0  0  0  0  0  0  0  0
    1.7321    6.0104    0.0000 C   0  0  0  0  0  0  0  0  0  0  0  0
    1.7321    5.0104    0.0000 C   0  0  0  0  0  0  0  0  0  0  0  0
    0.8660    4.5104    0.0000 C   0  0  0  0  0  0  0  0  0  0  0  0
    0.8660    3.5104    0.0000 C   0  0  0  0  0  0  0  0  0  0  0  0
   -0.0000    3.0104    0.0000 C   0  0  0  0  0  0  0  0  0  0  0  0
   -0.0000    2.0104    0.0000 N   0  0  0  0  0  0  0  0  0  0  0  0
   -0.8675    1.5027    0.0000 C   0  0  0  0  0  0  0  0  0  0  0  0
   -0.8675    0.4975    0.0000 C   0  0  0  0  0  0  0  0  0  0  0  0
    0.0000    0.0000    0.0000 C   0  0  0  0  0  0  0  0  0  0  0  0
    0.8675    0.4975    0.0000 C   0  0  0  0  0  0  0  0  0  0  0  0
    0.8675    1.5027    0.0000 C   0  0  0  0  0  0  0  0  0  0  0  0
  1  2  2  0  0  0  0
  2  3  1  0  0  0  0
  3  4  1  0  0  0  0
  4  5  1  0  0  0  0
  5 10  2  0  0  0  0
  5  6  1  0  0  0  0
  6  7  2  0  0  0  0
  7  8  1  0  0  0  0
  8  9  2  0  0  0  0
  9 10  1  0  0  0  0
  2 11  1  0  0  0  0
 11 16  2  0  0  0  0
 11 12  1  0  0  0  0
 12 13  2  0  0  0  0
 13 14  1  0  0  0  0
 14 15  2  0  0  0  0
 15 16  1  0  0  0  0
 16 17  1  0  0  0  0
 17 18  1  0  0  0  0
 18 19  1  0  0  0  0
 19 20  1  0  0  0  0
 20 21  1  0  0  0  0
 21 22  1  0  0  0  0
 22 23  1  0  0  0  0
 23 24  1  0  0  0  0
 24 29  1  0  0  0  0
 24 25  1  0  0  0  0
 25 26  1  0  0  0  0
 26 27  1  0  0  0  0
 27 28  1  0  0  0  0
 28 29  1  0  0  0  0
M  END
> <ID>
372371

$$$$
372298
  -OEChem-05171416412D

 30 32  0     0  0  0  0  0  0999 V2000
   -5.1999    8.0091    0.0000 O   0  0  0  0  0  0  0  0  0  0  0  0
   -5.2014    9.0091    0.0000 C   0  0  0  0  0  0  0  0  0  0  0  0
   -6.0682    9.5078    0.0000 C   0  0  0  0  0  0  0  0  0  0  0  0
   -6.9334    9.0065    0.0000 C   0  0  0  0  0  0  0  0  0  0  0  0
   -7.8002    9.5052    0.0000 C   0  0  0  0  0  0  0  0  0  0  0  0
   -8.6685    8.9988    0.0000 C   0  0  0  0  0  0  0  0  0  0  0  0
   -9.5353    9.4974    0.0000 C   0  0  0  0  0  0  0  0  0  0  0  0
   -9.5427   10.4974    0.0000 C   0  0  0  0  0  0  0  0  0  0  0  0
   -8.6744   11.0039    0.0000 C   0  0  0  0  0  0  0  0  0  0  0  0
   -7.7987   10.5104    0.0000 C   0  0  0  0  0  0  0  0  0  0  0  0
   -4.3361    9.5104    0.0000 C   0  0  0  0  0  0  0  0  0  0  0  0
   -4.3362   10.5105    0.0000 C   0  0  0  0  0  0  0  0  0  0  0  0
   -3.4730   11.0155    0.0000 C   0  0  0  0  0  0  0  0  0  0  0  0
   -2.6010   10.5155    0.0000 C   0  0  0  0  0  0  0  0  0  0  0  0
   -2.5921    9.5104    0.0000 C   0  0  0  0  0  0  0  0  0  0  0  0
   -3.4641    9.0104    0.0000 C   0  0  0  0  0  0  0  0  0  0  0  0
   -3.4641    8.0104    0.0000 O   0  0  0  0  0  0  0  0  0  0  0  0
   -2.5981    7.5104    0.0000 C   0  0  0  0  0  0  0  0  0  0  0  0
   -2.5981    6.5104    0.0000 C   0  0  0  0  0  0  0  0  0  0  0  0
   -1.7321    6.0104    0.0000 C   0  0  0  0  0  0  0  0  0  0  0  0
   -1.7321    5.0104    0.0000 C   0  0  0  0  0  0  0  0  0  0  0  0
   -0.8660    4.5104    0.0000 C   0  0  0  0  0  0  0  0  0  0  0  0
   -0.8660    3.5104    0.0000 C   0  0  0  0  0  0  0  0  0  0  0  0
   -0.0000    3.0104    0.0000 C   0  0  0  0  0  0  0  0  0  0  0  0
   -0.0000    2.0104    0.0000 N   0  0  0  0  0  0  0  0  0  0  0  0
   -0.8675    1.5027    0.0000 C   0  0  0  0  0  0  0  0  0  0  0  0
   -0.8675    0.4975    0.0000 C   0  0  0  0  0  0  0  0  0  0  0  0
    0.0000    0.0000    0.0000 C   0  0  0  0  0  0  0  0  0  0  0  0
    0.8675    0.4975    0.0000 C   0  0  0  0  0  0  0  0  0  0  0  0
    0.8675    1.5027    0.0000 C   0  0  0  0  0  0  0  0  0  0  0  0
  1  2  2  0  0  0  0
  2  3  1  0  0  0  0
  3  4  1  0  0  0  0
  4  5  1  0  0  0  0
  5 10  2  0  0  0  0
  5  6  1  0  0  0  0
  6  7  2  0  0  0  0
  7  8  1  0  0  0  0
  8  9  2  0  0  0  0
  9 10  1  0  0  0  0
  2 11  1  0  0  0  0
 11 16  2  0  0  0  0
 11 12  1  0  0  0  0
 12 13  2  0  0  0  0
 13 14  1  0  0  0  0
 14 15  2  0  0  0  0
 15 16  1  0  0  0  0
 16 17  1  0  0  0  0
 17 18  1  0  0  0  0
 18 19  1  0  0  0  0
 19 20  1  0  0  0  0
 20 21  1  0  0  0  0
 21 22  1  0  0  0  0
 22 23  1  0  0  0  0
 23 24  1  0  0  0  0
 24 25  1  0  0  0  0
 25 30  1  0  0  0  0
 25 26  1  0  0  0  0
 26 27  1  0  0  0  0
 27 28  1  0  0  0  0
 28 29  1  0  0  0  0
 29 30  1  0  0  0  0
M  END
> <ID>
372298

$$$$
372299
  -OEChem-05171416412D

 31 33  0     0  0  0  0  0  0999 V2000
    2.5951   10.5130    0.0000 O   0  0  0  0  0  0  0  0  0  0  0  0
    3.4604   11.0143    0.0000 C   0  0  0  0  0  0  0  0  0  0  0  0
    3.4589   12.0143    0.0000 C   0  0  0  0  0  0  0  0  0  0  0  0
    2.5921   12.5130    0.0000 C   0  0  0  0  0  0  0  0  0  0  0  0
    2.5906   13.5130    0.0000 C   0  0  0  0  0  0  0  0  0  0  0  0
    1.7179   14.0117    0.0000 C   0  0  0  0  0  0  0  0  0  0  0  0
    1.7163   15.0117    0.0000 C   0  0  0  0  0  0  0  0  0  0  0  0
    2.5787   15.5181    0.0000 C   0  0  0  0  0  0  0  0  0  0  0  0
    3.4514   15.0194    0.0000 C   0  0  0  0  0  0  0  0  0  0  0  0
    3.4618   14.0143    0.0000 C   0  0  0  0  0  0  0  0  0  0  0  0
    4.3272   10.5156    0.0000 C   0  0  0  0  0  0  0  0  0  0  0  0
    5.1932   11.0157    0.0000 C   0  0  0  0  0  0  0  0  0  0  0  0
    6.0622   10.5207    0.0000 C   0  0  0  0  0  0  0  0  0  0  0  0
    6.0651    9.5155    0.0000 C   0  0  0  0  0  0  0  0  0  0  0  0
    5.1991    9.0053    0.0000 C   0  0  0  0  0  0  0  0  0  0  0  0
    4.3301    9.5104    0.0000 C   0  0  0  0  0  0  0  0  0  0  0  0
    3.4641    9.0104    0.0000 O   0  0  0  0  0  0  0  0  0  0  0  0
    3.4641    8.0104    0.0000 C   0  0  0  0  0  0  0  0  0  0  0  0
    2.5981    7.5104    0.0000 C   0  0  0  0  0  0  0  0  0  0  0  0
    2.5981    6.5104    0.0000 C   0  0  0  0  0  0  0  0  0  0  0  0
    1.7321    6.0104    0.0000 C   0  0  0  0  0  0  0  0  0  0  0  0
    1.7321    5.0104    0.0000 C   0  0  0  0  0  0  0  0  0  0  0  0
    0.8660    4.5104    0.0000 C   0  0  0  0  0  0  0  0  0  0  0  0
    0.8660    3.5104    0.0000 C   0  0  0  0  0  0  0  0  0  0  0  0
   -0.0000    3.0104    0.0000 C   0  0  0  0  0  0  0  0  0  0  0  0
   -0.0000    2.0104    0.0000 N   0  0  0  0  0  0  0  0  0  0  0  0
   -0.8675    1.5027    0.0000 C   0  0  0  0  0  0  0  0  0  0  0  0
   -0.8675    0.4975    0.0000 C   0  0  0  0  0  0  0  0  0  0  0  0
    0.0000    0.0000    0.0000 C   0  0  0  0  0  0  0  0  0  0  0  0
    0.8675    0.4975    0.0000 C   0  0  0  0  0  0  0  0  0  0  0  0
    0.8675    1.5027    0.0000 C   0  0  0  0  0  0  0  0  0  0  0  0
  1  2  2  0  0  0  0
  2  3  1  0  0  0  0
  3  4  1  0  0  0  0
  4  5  1  0  0  0  0
  5 10  2  0  0  0  0
  5  6  1  0  0  0  0
  6  7  2  0  0  0  0
  7  8  1  0  0  0  0
  8  9  2  0  0  0  0
  9 10  1  0  0  0  0
  2 11  1  0  0  0  0
 11 16  2  0  0  0  0
 11 12  1  0  0  0  0
 12 13  2  0  0  0  0
 13 14  1  0  0  0  0
 14 15  2  0  0  0  0
 15 16  1  0  0  0  0
 16 17  1  0  0  0  0
 17 18  1  0  0  0  0
 18 19  1  0  0  0  0
 19 20  1  0  0  0  0
 20 21  1  0  0  0  0
 21 22  1  0  0  0  0
 22 23  1  0  0  0  0
 23 24  1  0  0  0  0
 24 25  1  0  0  0  0
 25 26  1  0  0  0  0
 26 31  1  0  0  0  0
 26 27  1  0  0  0  0
 27 28  1  0  0  0  0
 28 29  1  0  0  0  0
 29 30  1  0  0  0  0
 30 31  1  0  0  0  0
M  END
> <ID>
372299

$$$$
1591115
  -OEChem-05171416412D

 40 43  0     1  0  0  0  0  0999 V2000
    1.1080    4.3680    0.0000 C   0  0  0  0  0  0  0  0  0  0  0  0
    2.1080    4.3651    0.0000 O   0  0  0  0  0  0  0  0  0  0  0  0
    2.6054    3.4976    0.0000 C   0  0  2  0  0  0  0  0  0  0  0  0
    3.1029    2.6301    0.0000 H   0  0  0  0  0  0  0  0  0  0  0  0
    1.7379    3.0001    0.0000 C   0  0  0  0  0  0  0  0  0  0  0  0
    1.7350    2.0001    0.0000 C   0  0  0  0  0  0  0  0  0  0  0  0
    0.8675    1.5027    0.0000 C   0  0  0  0  0  0  0  0  0  0  0  0
    0.8675    0.4975    0.0000 C   0  0  0  0  0  0  0  0  0  0  0  0
    0.0000    0.0000    0.0000 C   0  0  0  0  0  0  0  0  0  0  0  0
   -0.8675    0.4975    0.0000 C   0  0  0  0  0  0  0  0  0  0  0  0
   -0.8675    1.5027    0.0000 C   0  0  0  0  0  0  0  0  0  0  0  0
    0.0000    2.0104    0.0000 C   0  0  0  0  0  0  0  0  0  0  0  0
    3.4729    3.9950    0.0000 C   0  0  0  0  0  0  0  0  0  0  0  0
    4.3382    3.4937    0.0000 C   0  0  0  0  0  0  0  0  0  0  0  0
    5.2079    3.9874    0.0000 C   0  0  0  0  0  0  0  0  0  0  0  0
    5.2123    4.9926    0.0000 C   0  0  0  0  0  0  0  0  0  0  0  0
    4.3471    5.5041    0.0000 C   0  0  0  0  0  0  0  0  0  0  0  0
    3.4774    5.0002    0.0000 C   0  0  0  0  0  0  0  0  0  0  0  0
    2.6121    5.5015    0.0000 O   0  0  0  0  0  0  0  0  0  0  0  0
    2.6135    6.5015    0.0000 C   0  0  0  0  0  0  0  0  0  0  0  0
    1.7482    7.0027    0.0000 C   0  0  2  0  0  0  0  0  0  0  0  0
    2.2495    7.8680    0.0000 H   0  0  0  0  0  0  0  0  0  0  0  0
    1.2470    6.1374    0.0000 O   0  0  0  0  0  0  0  0  0  0  0  0
    0.8829    7.5040    0.0000 C   0  0  0  0  0  0  0  0  0  0  0  0
    0.8844    8.5040    0.0000 N   0  0  0  0  0  0  0  0  0  0  0  0
    0.0191    9.0052    0.0000 C   0  0  0  0  0  0  0  0  0  0  0  0
    0.0205   10.0052    0.0000 C   0  0  0  0  0  0  0  0  0  0  0  0
   -0.8448   10.5065    0.0000 C   0  0  0  0  0  0  0  0  0  0  0  0
   -0.8433   11.5065    0.0000 C   0  0  0  0  0  0  0  0  0  0  0  0
    0.0294   12.0053    0.0000 C   0  0  0  0  0  0  0  0  0  0  0  0
    0.0309   13.0053    0.0000 C   0  0  0  0  0  0  0  0  0  0  0  0
   -0.8315   13.5116    0.0000 C   0  0  0  0  0  0  0  0  0  0  0  0
   -1.7042   13.0128    0.0000 C   0  0  0  0  0  0  0  0  0  0  0  0
   -1.7146   12.0078    0.0000 C   0  0  0  0  0  0  0  0  0  0  0  0
   -1.7115   10.0077    0.0000 C   0  0  0  0  0  0  0  0  0  0  0  0
   -2.5798   10.5142    0.0000 C   0  0  0  0  0  0  0  0  0  0  0  0
   -3.4466   10.0155    0.0000 C   0  0  0  0  0  0  0  0  0  0  0  0
   -3.4539    9.0155    0.0000 C   0  0  0  0  0  0  0  0  0  0  0  0
   -2.5856    8.5090    0.0000 C   0  0  0  0  0  0  0  0  0  0  0  0
   -1.7100    9.0026    0.0000 C   0  0  0  0  0  0  0  0  0  0  0  0
  1  2  1  0  0  0  0
  2  3  1  0  0  0  0
  3  4  1  6  0  0  0
  3  5  1  0  0  0  0
  5  6  1  0  0  0  0
  6  7  1  0  0  0  0
  7 12  2  0  0  0  0
  7  8  1  0  0  0  0
  8  9  2  0  0  0  0
  9 10  1  0  0  0  0
 10 11  2  0  0  0  0
 11 12  1  0  0  0  0
  3 13  1  0  0  0  0
 13 18  2  0  0  0  0
 13 14  1  0  0  0  0
 14 15  2  0  0  0  0
 15 16  1  0  0  0  0
 16 17  2  0  0  0  0
 17 18  1  0  0  0  0
 18 19  1  0  0  0  0
 19 20  1  0  0  0  0
 20 21  1  0  0  0  0
 21 22  1  1  0  0  0
 21 23  1  0  0  0  0
 21 24  1  0  0  0  0
 24 25  1  0  0  0  0
 25 26  1  0  0  0  0
 26 27  1  0  0  0  0
 27 28  1  0  0  0  0
 28 29  1  0  0  0  0
 29 34  2  0  0  0  0
 29 30  1  0  0  0  0
 30 31  2  0  0  0  0
 31 32  1  0  0  0  0
 32 33  2  0  0  0  0
 33 34  1  0  0  0  0
 28 35  1  0  0  0  0
 35 40  2  0  0  0  0
 35 36  1  0  0  0  0
 36 37  2  0  0  0  0
 37 38  1  0  0  0  0
 38 39  2  0  0  0  0
 39 40  1  0  0  0  0
M  END
> <ID>
1591115

$$$$
1591116
  -OEChem-05171416412D

 29 31  0     1  0  0  0  0  0999 V2000
    0.5015   -2.8635    0.0000 O   0  0  0  0  0  0  0  0  0  0  0  0
    0.0015   -1.9975    0.0000 C   0  0  1  0  0  0  0  0  0  0  0  0
   -0.4985   -1.1315    0.0000 H   0  0  0  0  0  0  0  0  0  0  0  0
   -0.8646   -2.4975    0.0000 C   0  0  0  0  0  0  0  0  0  0  0  0
   -0.8646   -3.4975    0.0000 O   0  0  0  0  0  0  0  0  0  0  0  0
   -1.7306   -3.9975    0.0000 C   0  0  0  0  0  0  0  0  0  0  0  0
   -2.5974   -3.4987    0.0000 C   0  0  0  0  0  0  0  0  0  0  0  0
   -3.4656   -3.9950    0.0000 C   0  0  0  0  0  0  0  0  0  0  0  0
   -3.4670   -5.0002    0.0000 C   0  0  0  0  0  0  0  0  0  0  0  0
   -2.6003   -5.5091    0.0000 C   0  0  0  0  0  0  0  0  0  0  0  0
   -1.7320   -5.0027    0.0000 C   0  0  0  0  0  0  0  0  0  0  0  0
   -0.8653   -5.5014    0.0000 C   0  0  2  0  0  0  0  0  0  0  0  0
   -1.3640   -6.3682    0.0000 H   0  0  0  0  0  0  0  0  0  0  0  0
   -0.3666   -4.6346    0.0000 O   0  0  0  0  0  0  0  0  0  0  0  0
    0.0015   -6.0001    0.0000 C   0  0  0  0  0  0  0  0  0  0  0  0
    0.0030   -7.0001    0.0000 C   0  0  0  0  0  0  0  0  0  0  0  0
    0.8698   -7.4988    0.0000 C   0  0  0  0  0  0  0  0  0  0  0  0
    0.8683   -8.5040    0.0000 C   0  0  0  0  0  0  0  0  0  0  0  0
    1.7351   -9.0028    0.0000 C   0  0  0  0  0  0  0  0  0  0  0  0
    2.6033   -8.5065    0.0000 C   0  0  0  0  0  0  0  0  0  0  0  0
    2.6048   -7.5013    0.0000 C   0  0  0  0  0  0  0  0  0  0  0  0
    1.7380   -6.9924    0.0000 C   0  0  0  0  0  0  0  0  0  0  0  0
    0.8675   -1.4975    0.0000 C   0  0  0  0  0  0  0  0  0  0  0  0
    0.8675   -0.4975    0.0000 N   0  0  0  0  0  0  0  0  0  0  0  0
    0.0000    0.0000    0.0000 C   0  0  0  0  0  0  0  0  0  0  0  0
   -0.0000    1.0052    0.0000 C   0  0  0  0  0  0  0  0  0  0  0  0
    0.8675    1.5129    0.0000 O   0  0  0  0  0  0  0  0  0  0  0  0
    1.7350    1.0052    0.0000 C   0  0  0  0  0  0  0  0  0  0  0  0
    1.7350    0.0000    0.0000 C   0  0  0  0  0  0  0  0  0  0  0  0
  1  2  1  0  0  0  0
  2  3  1  6  0  0  0
  2  4  1  0  0  0  0
  4  5  1  0  0  0  0
  5  6  1  0  0  0  0
  6 11  2  0  0  0  0
  6  7  1  0  0  0  0
  7  8  2  0  0  0  0
  8  9  1  0  0  0  0
  9 10  2  0  0  0  0
 10 11  1  0  0  0  0
 11 12  1  0  0  0  0
 12 13  1  1  0  0  0
 12 14  1  0  0  0  0
 12 15  1  0  0  0  0
 15 16  1  0  0  0  0
 16 17  1  0  0  0  0
 17 22  2  0  0  0  0
 17 18  1  0  0  0  0
 18 19  2  0  0  0  0
 19 20  1  0  0  0  0
 20 21  2  0  0  0  0
 21 22  1  0  0  0  0
  2 23  1  0  0  0  0
 23 24  1  0  0  0  0
 24 29  1  0  0  0  0
 24 25  1  0  0  0  0
 25 26  1  0  0  0  0
 26 27  1  0  0  0  0
 27 28  1  0  0  0  0
 28 29  1  0  0  0  0
M  END
> <ID>
1591116

$$$$
1591117
  -OEChem-05171416412D

 30 32  0     1  0  0  0  0  0999 V2000
    0.6379   -4.6331    0.0000 C   0  0  0  0  0  0  0  0  0  0  0  0
   -0.3621   -4.6346    0.0000 O   0  0  0  0  0  0  0  0  0  0  0  0
   -0.8608   -5.5014    0.0000 C   0  0  2  0  0  0  0  0  0  0  0  0
   -1.3595   -6.3682    0.0000 H   0  0  0  0  0  0  0  0  0  0  0  0
    0.0059   -6.0001    0.0000 C   0  0  0  0  0  0  0  0  0  0  0  0
    0.0074   -7.0001    0.0000 C   0  0  0  0  0  0  0  0  0  0  0  0
    0.8742   -7.4988    0.0000 C   0  0  0  0  0  0  0  0  0  0  0  0
    0.8728   -8.5040    0.0000 C   0  0  0  0  0  0  0  0  0  0  0  0
    1.7395   -9.0028    0.0000 C   0  0  0  0  0  0  0  0  0  0  0  0
    2.6078   -8.5065    0.0000 C   0  0  0  0  0  0  0  0  0  0  0  0
    2.6092   -7.5013    0.0000 C   0  0  0  0  0  0  0  0  0  0  0  0
    1.7424   -6.9924    0.0000 C   0  0  0  0  0  0  0  0  0  0  0  0
   -1.7276   -5.0027    0.0000 C   0  0  0  0  0  0  0  0  0  0  0  0
   -2.5936   -5.5028    0.0000 C   0  0  0  0  0  0  0  0  0  0  0  0
   -3.4626   -5.0078    0.0000 C   0  0  0  0  0  0  0  0  0  0  0  0
   -3.4656   -4.0026    0.0000 C   0  0  0  0  0  0  0  0  0  0  0  0
   -2.5996   -3.4924    0.0000 C   0  0  0  0  0  0  0  0  0  0  0  0
   -1.7306   -3.9975    0.0000 C   0  0  0  0  0  0  0  0  0  0  0  0
   -0.8646   -3.4975    0.0000 O   0  0  0  0  0  0  0  0  0  0  0  0
   -0.8646   -2.4975    0.0000 C   0  0  0  0  0  0  0  0  0  0  0  0
    0.0015   -1.9975    0.0000 C   0  0  2  0  0  0  0  0  0  0  0  0
   -0.4985   -1.1315    0.0000 H   0  0  0  0  0  0  0  0  0  0  0  0
    0.5015   -2.8635    0.0000 O   0  0  0  0  0  0  0  0  0  0  0  0
    0.8675   -1.4975    0.0000 C   0  0  0  0  0  0  0  0  0  0  0  0
    0.8675   -0.4975    0.0000 N   0  0  0  0  0  0  0  0  0  0  0  0
    0.0000    0.0000    0.0000 C   0  0  0  0  0  0  0  0  0  0  0  0
   -0.0000    1.0052    0.0000 C   0  0  0  0  0  0  0  0  0  0  0  0
    0.8675    1.5129    0.0000 O   0  0  0  0  0  0  0  0  0  0  0  0
    1.7350    1.0052    0.0000 C   0  0  0  0  0  0  0  0  0  0  0  0
    1.7350    0.0000    0.0000 C   0  0  0  0  0  0  0  0  0  0  0  0
  1  2  1  0  0  0  0
  2  3  1  0  0  0  0
  3  4  1  1  0  0  0
  3  5  1  0  0  0  0
  5  6  1  0  0  0  0
  6  7  1  0  0  0  0
  7 12  2  0  0  0  0
  7  8  1  0  0  0  0
  8  9  2  0  0  0  0
  9 10  1  0  0  0  0
 10 11  2  0  0  0  0
 11 12  1  0  0  0  0
  3 13  1  0  0  0  0
 13 18  2  0  0  0  0
 13 14  1  0  0  0  0
 14 15  2  0  0  0  0
 15 16  1  0  0  0  0
 16 17  2  0  0  0  0
 17 18  1  0  0  0  0
 18 19  1  0  0  0  0
 19 20  1  0  0  0  0
 20 21  1  0  0  0  0
 21 22  1  6  0  0  0
 21 23  1  0  0  0  0
 21 24  1  0  0  0  0
 24 25  1  0  0  0  0
 25 30  1  0  0  0  0
 25 26  1  0  0  0  0
 26 27  1  0  0  0  0
 27 28  1  0  0  0  0
 28 29  1  0  0  0  0
 29 30  1  0  0  0  0
M  END
> <ID>
1591117

$$$$
1591118
  -OEChem-05171416412D

 34 36  0     1  0  0  0  0  0999 V2000
   -6.0571   -5.5063    0.0000 C   0  0  0  0  0  0  0  0  0  0  0  0
   -5.1918   -5.0050    0.0000 C   0  0  0  0  0  0  0  0  0  0  0  0
   -5.1933   -4.0050    0.0000 C   0  0  0  0  0  0  0  0  0  0  0  0
   -4.3280   -3.5038    0.0000 N   0  0  0  0  0  0  0  0  0  0  0  0
   -4.3294   -2.5038    0.0000 C   0  0  0  0  0  0  0  0  0  0  0  0
   -3.4641   -2.0025    0.0000 C   0  0  1  0  0  0  0  0  0  0  0  0
   -3.9654   -1.1372    0.0000 H   0  0  0  0  0  0  0  0  0  0  0  0
   -2.9629   -2.8678    0.0000 O   0  0  0  0  0  0  0  0  0  0  0  0
   -2.5988   -1.5013    0.0000 C   0  0  0  0  0  0  0  0  0  0  0  0
   -2.6003   -0.5013    0.0000 O   0  0  0  0  0  0  0  0  0  0  0  0
   -1.7350   -0.0000    0.0000 C   0  0  0  0  0  0  0  0  0  0  0  0
   -0.8675   -0.4975    0.0000 C   0  0  0  0  0  0  0  0  0  0  0  0
    0.0000    0.0000    0.0000 C   0  0  0  0  0  0  0  0  0  0  0  0
   -0.0000    1.0052    0.0000 C   0  0  0  0  0  0  0  0  0  0  0  0
    0.8675    1.5026    0.0000 O   0  0  0  0  0  0  0  0  0  0  0  0
    0.8704    2.5026    0.0000 C   0  0  0  0  0  0  0  0  0  0  0  0
    1.7379    3.0001    0.0000 C   0  0  0  0  0  0  0  0  0  0  0  0
    1.7379    4.0053    0.0000 C   0  0  0  0  0  0  0  0  0  0  0  0
    2.6054    4.5028    0.0000 C   0  0  0  0  0  0  0  0  0  0  0  0
    3.4729    4.0053    0.0000 C   0  0  0  0  0  0  0  0  0  0  0  0
    3.4729    3.0001    0.0000 C   0  0  0  0  0  0  0  0  0  0  0  0
    2.6054    2.4924    0.0000 C   0  0  0  0  0  0  0  0  0  0  0  0
   -0.8675    1.5129    0.0000 C   0  0  0  0  0  0  0  0  0  0  0  0
   -1.7350    1.0052    0.0000 C   0  0  0  0  0  0  0  0  0  0  0  0
   -2.6025    1.5026    0.0000 C   0  0  0  0  0  0  0  0  0  0  0  0
   -2.6054    2.5026    0.0000 O   0  0  0  0  0  0  0  0  0  0  0  0
   -3.4670    1.0001    0.0000 C   0  0  0  0  0  0  0  0  0  0  0  0
   -4.3345    1.4975    0.0000 C   0  0  0  0  0  0  0  0  0  0  0  0
   -5.1991    0.9950    0.0000 C   0  0  0  0  0  0  0  0  0  0  0  0
   -5.1932   -0.0102    0.0000 C   0  0  0  0  0  0  0  0  0  0  0  0
   -6.0577   -0.5128    0.0000 C   0  0  0  0  0  0  0  0  0  0  0  0
   -6.9281   -0.0204    0.0000 C   0  0  0  0  0  0  0  0  0  0  0  0
   -6.9341    0.9847    0.0000 C   0  0  0  0  0  0  0  0  0  0  0  0
   -6.0696    1.4976    0.0000 C   0  0  0  0  0  0  0  0  0  0  0  0
  1  2  1  0  0  0  0
  2  3  1  0  0  0  0
  3  4  1  0  0  0  0
  4  5  1  0  0  0  0
  5  6  1  0  0  0  0
  6  7  1  1  0  0  0
  6  8  1  0  0  0  0
  6  9  1  0  0  0  0
  9 10  1  0  0  0  0
 10 11  1  0  0  0  0
 11 24  2  0  0  0  0
 11 12  1  0  0  0  0
 12 13  2  0  0  0  0
 13 14  1  0  0  0  0
 14 15  1  0  0  0  0
 15 16  1  0  0  0  0
 16 17  1  0  0  0  0
 17 22  2  0  0  0  0
 17 18  1  0  0  0  0
 18 19  2  0  0  0  0
 19 20  1  0  0  0  0
 20 21  2  0  0  0  0
 21 22  1  0  0  0  0
 14 23  2  0  0  0  0
 23 24  1  0  0  0  0
 24 25  1  0  0  0  0
 25 26  2  0  0  0  0
 25 27  1  0  0  0  0
 27 28  1  0  0  0  0
 28 29  1  0  0  0  0
 29 34  2  0  0  0  0
 29 30  1  0  0  0  0
 30 31  2  0  0  0  0
 31 32  1  0  0  0  0
 32 33  2  0  0  0  0
 33 34  1  0  0  0  0
M  END
> <ID>
1591118

$$$$
1591119
  -OEChem-05171416412D

 36 39  0     1  0  0  0  0  0999 V2000
    0.3660    4.3764    0.0000 O   0  0  0  0  0  0  0  0  0  0  0  0
    0.8660    3.5104    0.0000 C   0  0  1  0  0  0  0  0  0  0  0  0
    1.3660    2.6444    0.0000 H   0  0  0  0  0  0  0  0  0  0  0  0
    1.7321    4.0104    0.0000 C   0  0  0  0  0  0  0  0  0  0  0  0
    1.7321    5.0104    0.0000 O   0  0  0  0  0  0  0  0  0  0  0  0
    2.5981    5.5104    0.0000 C   0  0  0  0  0  0  0  0  0  0  0  0
    3.4649    5.0116    0.0000 C   0  0  0  0  0  0  0  0  0  0  0  0
    4.3331    5.5079    0.0000 C   0  0  0  0  0  0  0  0  0  0  0  0
    4.3345    6.5131    0.0000 C   0  0  0  0  0  0  0  0  0  0  0  0
    5.2028    7.0093    0.0000 O   0  0  0  0  0  0  0  0  0  0  0  0
    5.2072    8.0093    0.0000 C   0  0  0  0  0  0  0  0  0  0  0  0
    6.0754    8.5054    0.0000 C   0  0  0  0  0  0  0  0  0  0  0  0
    6.0768    9.5106    0.0000 C   0  0  0  0  0  0  0  0  0  0  0  0
    6.9451   10.0069    0.0000 C   0  0  0  0  0  0  0  0  0  0  0  0
    7.8118    9.5081    0.0000 C   0  0  0  0  0  0  0  0  0  0  0  0
    7.8104    8.5029    0.0000 C   0  0  0  0  0  0  0  0  0  0  0  0
    6.9421    7.9965    0.0000 C   0  0  0  0  0  0  0  0  0  0  0  0
    3.4678    7.0220    0.0000 C   0  0  0  0  0  0  0  0  0  0  0  0
    2.5995    6.5156    0.0000 C   0  0  0  0  0  0  0  0  0  0  0  0
    1.7328    7.0143    0.0000 C   0  0  0  0  0  0  0  0  0  0  0  0
    1.7313    8.0143    0.0000 O   0  0  0  0  0  0  0  0  0  0  0  0
    0.8675    6.5130    0.0000 C   0  0  0  0  0  0  0  0  0  0  0  0
    0.0007    7.0117    0.0000 C   0  0  0  0  0  0  0  0  0  0  0  0
   -0.8646    6.5104    0.0000 C   0  0  0  0  0  0  0  0  0  0  0  0
   -0.8601    5.5052    0.0000 C   0  0  0  0  0  0  0  0  0  0  0  0
   -1.7254    5.0039    0.0000 C   0  0  0  0  0  0  0  0  0  0  0  0
   -2.5951    5.4975    0.0000 C   0  0  0  0  0  0  0  0  0  0  0  0
   -2.5995    6.5027    0.0000 C   0  0  0  0  0  0  0  0  0  0  0  0
   -1.7343    7.0142    0.0000 C   0  0  0  0  0  0  0  0  0  0  0  0
   -0.0000    3.0104    0.0000 C   0  0  0  0  0  0  0  0  0  0  0  0
   -0.0000    2.0104    0.0000 N   0  0  0  0  0  0  0  0  0  0  0  0
   -0.8675    1.5027    0.0000 C   0  0  0  0  0  0  0  0  0  0  0  0
   -0.8675    0.4975    0.0000 C   0  0  0  0  0  0  0  0  0  0  0  0
    0.0000    0.0000    0.0000 C   0  0  0  0  0  0  0  0  0  0  0  0
    0.8675    0.4975    0.0000 C   0  0  0  0  0  0  0  0  0  0  0  0
    0.8675    1.5027    0.0000 C   0  0  0  0  0  0  0  0  0  0  0  0
  1  2  1  0  0  0  0
  2  3  1  6  0  0  0
  2  4  1  0  0  0  0
  4  5  1  0  0  0  0
  5  6  1  0  0  0  0
  6 19  2  0  0  0  0
  6  7  1  0  0  0  0
  7  8  2  0  0  0  0
  8  9  1  0  0  0  0
  9 10  1  0  0  0  0
 10 11  1  0  0  0  0
 11 12  1  0  0  0  0
 12 17  2  0  0  0  0
 12 13  1  0  0  0  0
 13 14  2  0  0  0  0
 14 15  1  0  0  0  0
 15 16  2  0  0  0  0
 16 17  1  0  0  0  0
  9 18  2  0  0  0  0
 18 19  1  0  0  0  0
 19 20  1  0  0  0  0
 20 21  2  0  0  0  0
 20 22  1  0  0  0  0
 22 23  1  0  0  0  0
 23 24  1  0  0  0  0
 24 29  2  0  0  0  0
 24 25  1  0  0  0  0
 25 26  2  0  0  0  0
 26 27  1  0  0  0  0
 27 28  2  0  0  0  0
 28 29  1  0  0  0  0
  2 30  1  0  0  0  0
 30 31  1  0  0  0  0
 31 36  1  0  0  0  0
 31 32  1  0  0  0  0
 32 33  1  0  0  0  0
 33 34  1  0  0  0  0
 34 35  1  0  0  0  0
 35 36  1  0  0  0  0
M  END
> <ID>
1591119

$$$$
1591120
  -OEChem-05171416412D

 29 31  0     1  0  0  0  0  0999 V2000
    0.3660    4.3764    0.0000 O   0  0  0  0  0  0  0  0  0  0  0  0
    0.8660    3.5104    0.0000 C   0  0  1  0  0  0  0  0  0  0  0  0
    1.3660    2.6444    0.0000 H   0  0  0  0  0  0  0  0  0  0  0  0
    1.7321    4.0104    0.0000 C   0  0  0  0  0  0  0  0  0  0  0  0
    1.7321    5.0104    0.0000 O   0  0  0  0  0  0  0  0  0  0  0  0
    2.5981    5.5104    0.0000 C   0  0  0  0  0  0  0  0  0  0  0  0
    3.4649    5.0116    0.0000 C   0  0  0  0  0  0  0  0  0  0  0  0
    4.3331    5.5079    0.0000 C   0  0  0  0  0  0  0  0  0  0  0  0
    4.3345    6.5131    0.0000 C   0  0  0  0  0  0  0  0  0  0  0  0
    5.2028    7.0093    0.0000 O   0  0  0  0  0  0  0  0  0  0  0  0
    3.4678    7.0220    0.0000 C   0  0  0  0  0  0  0  0  0  0  0  0
    2.5995    6.5156    0.0000 C   0  0  0  0  0  0  0  0  0  0  0  0
    1.7328    7.0143    0.0000 C   0  0  0  0  0  0  0  0  0  0  0  0
    1.7313    8.0143    0.0000 O   0  0  0  0  0  0  0  0  0  0  0  0
    0.8675    6.5130    0.0000 C   0  0  0  0  0  0  0  0  0  0  0  0
    0.0007    7.0117    0.0000 C   0  0  0  0  0  0  0  0  0  0  0  0
   -0.8646    6.5104    0.0000 C   0  0  0  0  0  0  0  0  0  0  0  0
   -0.8601    5.5052    0.0000 C   0  0  0  0  0  0  0  0  0  0  0  0
   -1.7254    5.0039    0.0000 C   0  0  0  0  0  0  0  0  0  0  0  0
   -2.5951    5.4975    0.0000 C   0  0  0  0  0  0  0  0  0  0  0  0
   -2.5995    6.5027    0.0000 C   0  0  0  0  0  0  0  0  0  0  0  0
   -1.7343    7.0142    0.0000 C   0  0  0  0  0  0  0  0  0  0  0  0
   -0.0000    3.0104    0.0000 C   0  0  0  0  0  0  0  0  0  0  0  0
   -0.0000    2.0104    0.0000 N   0  0  0  0  0  0  0  0  0  0  0  0
   -0.8675    1.5027    0.0000 C   0  0  0  0  0  0  0  0  0  0  0  0
   -0.8675    0.4975    0.0000 C   0  0  0  0  0  0  0  0  0  0  0  0
    0.0000    0.0000    0.0000 C   0  0  0  0  0  0  0  0  0  0  0  0
    0.8675    0.4975    0.0000 C   0  0  0  0  0  0  0  0  0  0  0  0
    0.8675    1.5027    0.0000 C   0  0  0  0  0  0  0  0  0  0  0  0
  1  2  1  0  0  0  0
  2  3  1  6  0  0  0
  2  4  1  0  0  0  0
  4  5  1  0  0  0  0
  5  6  1  0  0  0  0
  6 12  2  0  0  0  0
  6  7  1  0  0  0  0
  7  8  2  0  0  0  0
  8  9  1  0  0  0  0
  9 10  1  0  0  0  0
  9 11  2  0  0  0  0
 11 12  1  0  0  0  0
 12 13  1  0  0  0  0
 13 14  2  0  0  0  0
 13 15  1  0  0  0  0
 15 16  1  0  0  0  0
 16 17  1  0  0  0  0
 17 22  2  0  0  0  0
 17 18  1  0  0  0  0
 18 19  2  0  0  0  0
 19 20  1  0  0  0  0
 20 21  2  0  0  0  0
 21 22  1  0  0  0  0
  2 23  1  0  0  0  0
 23 24  1  0  0  0  0
 24 29  1  0  0  0  0
 24 25  1  0  0  0  0
 25 26  1  0  0  0  0
 26 27  1  0  0  0  0
 27 28  1  0  0  0  0
 28 29  1  0  0  0  0
M  END
> <ID>
1591120

$$$$
1591121
  -OEChem-05171416412D

 38 41  0     1  0  0  0  0  0999 V2000
    5.5611    0.6228    0.0000 O   0  0  0  0  0  0  0  0  0  0  0  0
    6.0636    1.4874    0.0000 C   0  0  2  0  0  0  0  0  0  0  0  0
    6.5662    2.3519    0.0000 H   0  0  0  0  0  0  0  0  0  0  0  0
    5.1991    1.9899    0.0000 C   0  0  0  0  0  0  0  0  0  0  0  0
    4.3316    1.4925    0.0000 N   0  0  0  0  0  0  0  0  0  0  0  0
    3.4670    1.9950    0.0000 C   0  0  0  0  0  0  0  0  0  0  0  0
    2.5995    1.4976    0.0000 C   0  0  0  0  0  0  0  0  0  0  0  0
    1.7350    2.0001    0.0000 C   0  0  0  0  0  0  0  0  0  0  0  0
    0.8675    1.5027    0.0000 C   0  0  0  0  0  0  0  0  0  0  0  0
    0.8675    0.4975    0.0000 C   0  0  0  0  0  0  0  0  0  0  0  0
    0.0000    0.0000    0.0000 C   0  0  0  0  0  0  0  0  0  0  0  0
   -0.8675    0.4975    0.0000 C   0  0  0  0  0  0  0  0  0  0  0  0
   -0.8675    1.5027    0.0000 C   0  0  0  0  0  0  0  0  0  0  0  0
    0.0000    2.0104    0.0000 C   0  0  0  0  0  0  0  0  0  0  0  0
    1.7379    3.0001    0.0000 C   0  0  0  0  0  0  0  0  0  0  0  0
    0.8674    3.5027    0.0000 C   0  0  0  0  0  0  0  0  0  0  0  0
    0.8703    4.5028    0.0000 C   0  0  0  0  0  0  0  0  0  0  0  0
    1.7349    5.0053    0.0000 C   0  0  0  0  0  0  0  0  0  0  0  0
    2.6054    4.5027    0.0000 C   0  0  0  0  0  0  0  0  0  0  0  0
    2.6114    3.4976    0.0000 C   0  0  0  0  0  0  0  0  0  0  0  0
    6.9282    0.9848    0.0000 C   0  0  0  0  0  0  0  0  0  0  0  0
    7.7957    1.4823    0.0000 O   0  0  0  0  0  0  0  0  0  0  0  0
    8.6602    0.9797    0.0000 C   0  0  0  0  0  0  0  0  0  0  0  0
    9.5285    1.4759    0.0000 C   0  0  0  0  0  0  0  0  0  0  0  0
   10.3952    0.9771    0.0000 C   0  0  0  0  0  0  0  0  0  0  0  0
   10.3937   -0.0281    0.0000 C   0  0  0  0  0  0  0  0  0  0  0  0
    9.5255   -0.5345    0.0000 C   0  0  0  0  0  0  0  0  0  0  0  0
    8.6587   -0.0255    0.0000 C   0  0  0  0  0  0  0  0  0  0  0  0
    7.7905   -0.5216    0.0000 C   0  0  0  0  0  0  0  0  0  0  0  0
    6.9267   -0.0178    0.0000 O   0  0  0  0  0  0  0  0  0  0  0  0
    7.7860   -1.5216    0.0000 C   0  0  0  0  0  0  0  0  0  0  0  0
    6.9178   -2.0178    0.0000 C   0  0  0  0  0  0  0  0  0  0  0  0
    6.9133   -3.0178    0.0000 C   0  0  0  0  0  0  0  0  0  0  0  0
    7.7831   -3.5217    0.0000 C   0  0  0  0  0  0  0  0  0  0  0  0
    7.7787   -4.5217    0.0000 C   0  0  0  0  0  0  0  0  0  0  0  0
    6.9134   -5.0229    0.0000 C   0  0  0  0  0  0  0  0  0  0  0  0
    6.0436   -4.5190    0.0000 C   0  0  0  0  0  0  0  0  0  0  0  0
    6.0392   -3.5139    0.0000 C   0  0  0  0  0  0  0  0  0  0  0  0
  1  2  1  0  0  0  0
  2  3  1  1  0  0  0
  2  4  1  0  0  0  0
  4  5  1  0  0  0  0
  5  6  1  0  0  0  0
  6  7  1  0  0  0  0
  7  8  1  0  0  0  0
  8  9  1  0  0  0  0
  9 14  2  0  0  0  0
  9 10  1  0  0  0  0
 10 11  2  0  0  0  0
 11 12  1  0  0  0  0
 12 13  2  0  0  0  0
 13 14  1  0  0  0  0
  8 15  1  0  0  0  0
 15 20  2  0  0  0  0
 15 16  1  0  0  0  0
 16 17  2  0  0  0  0
 17 18  1  0  0  0  0
 18 19  2  0  0  0  0
 19 20  1  0  0  0  0
  2 21  1  0  0  0  0
 21 22  1  0  0  0  0
 22 23  1  0  0  0  0
 23 28  2  0  0  0  0
 23 24  1  0  0  0  0
 24 25  2  0  0  0  0
 25 26  1  0  0  0  0
 26 27  2  0  0  0  0
 27 28  1  0  0  0  0
 28 29  1  0  0  0  0
 29 30  2  0  0  0  0
 29 31  1  0  0  0  0
 31 32  1  0  0  0  0
 32 33  1  0  0  0  0
 33 38  2  0  0  0  0
 33 34  1  0  0  0  0
 34 35  2  0  0  0  0
 35 36  1  0  0  0  0
 36 37  2  0  0  0  0
 37 38  1  0  0  0  0
M  END
> <ID>
1591121

$$$$
1591122
  -OEChem-05171416412D

 29 31  0     1  0  0  0  0  0999 V2000
    3.1029    2.6301    0.0000 O   0  0  0  0  0  0  0  0  0  0  0  0
    2.6054    3.4976    0.0000 C   0  0  2  0  0  0  0  0  0  0  0  0
    2.1080    4.3651    0.0000 H   0  0  0  0  0  0  0  0  0  0  0  0
    1.7379    3.0001    0.0000 C   0  0  0  0  0  0  0  0  0  0  0  0
    1.7350    2.0001    0.0000 N   0  0  0  0  0  0  0  0  0  0  0  0
    0.8675    1.5027    0.0000 C   0  0  0  0  0  0  0  0  0  0  0  0
    0.8675    0.4975    0.0000 C   0  0  0  0  0  0  0  0  0  0  0  0
    0.0000    0.0000    0.0000 C   0  0  0  0  0  0  0  0  0  0  0  0
   -0.8675    0.4975    0.0000 C   0  0  0  0  0  0  0  0  0  0  0  0
   -0.8675    1.5027    0.0000 C   0  0  0  0  0  0  0  0  0  0  0  0
    0.0000    2.0104    0.0000 C   0  0  0  0  0  0  0  0  0  0  0  0
    3.4729    3.9950    0.0000 C   0  0  0  0  0  0  0  0  0  0  0  0
    3.4759    4.9950    0.0000 O   0  0  0  0  0  0  0  0  0  0  0  0
    4.3434    5.4925    0.0000 C   0  0  0  0  0  0  0  0  0  0  0  0
    4.3478    6.4925    0.0000 C   0  0  0  0  0  0  0  0  0  0  0  0
    5.2131    6.9937    0.0000 C   0  0  0  0  0  0  0  0  0  0  0  0
    6.0829    6.4898    0.0000 C   0  0  0  0  0  0  0  0  0  0  0  0
    6.0873    5.4847    0.0000 C   0  0  0  0  0  0  0  0  0  0  0  0
    5.2132    4.9886    0.0000 C   0  0  0  0  0  0  0  0  0  0  0  0
    5.2087    3.9886    0.0000 C   0  0  0  0  0  0  0  0  0  0  0  0
    4.3405    3.4924    0.0000 O   0  0  0  0  0  0  0  0  0  0  0  0
    6.0725    3.4847    0.0000 C   0  0  0  0  0  0  0  0  0  0  0  0
    6.0681    2.4847    0.0000 C   0  0  0  0  0  0  0  0  0  0  0  0
    6.9318    1.9809    0.0000 C   0  0  0  0  0  0  0  0  0  0  0  0
    7.8031    2.4822    0.0000 C   0  0  0  0  0  0  0  0  0  0  0  0
    8.6670    1.9784    0.0000 C   0  0  0  0  0  0  0  0  0  0  0  0
    8.6684    0.9783    0.0000 C   0  0  0  0  0  0  0  0  0  0  0  0
    7.7971    0.4770    0.0000 C   0  0  0  0  0  0  0  0  0  0  0  0
    6.9244    0.9758    0.0000 C   0  0  0  0  0  0  0  0  0  0  0  0
  1  2  1  0  0  0  0
  2  3  1  1  0  0  0
  2  4  1  0  0  0  0
  4  5  1  0  0  0  0
  5  6  1  0  0  0  0
  6 11  2  0  0  0  0
  6  7  1  0  0  0  0
  7  8  2  0  0  0  0
  8  9  1  0  0  0  0
  9 10  2  0  0  0  0
 10 11  1  0  0  0  0
  2 12  1  0  0  0  0
 12 13  1  0  0  0  0
 13 14  1  0  0  0  0
 14 19  2  0  0  0  0
 14 15  1  0  0  0  0
 15 16  2  0  0  0  0
 16 17  1  0  0  0  0
 17 18  2  0  0  0  0
 18 19  1  0  0  0  0
 19 20  1  0  0  0  0
 20 21  2  0  0  0  0
 20 22  1  0  0  0  0
 22 23  1  0  0  0  0
 23 24  1  0  0  0  0
 24 29  2  0  0  0  0
 24 25  1  0  0  0  0
 25 26  2  0  0  0  0
 26 27  1  0  0  0  0
 27 28  2  0  0  0  0
 28 29  1  0  0  0  0
M  END
> <ID>
1591122

$$$$
1591123
  -OEChem-05171416412D

 29 31  0     1  0  0  0  0  0999 V2000
    3.1029    2.6301    0.0000 O   0  0  0  0  0  0  0  0  0  0  0  0
    2.6054    3.4976    0.0000 C   0  0  2  0  0  0  0  0  0  0  0  0
    2.1080    4.3651    0.0000 H   0  0  0  0  0  0  0  0  0  0  0  0
    1.7379    3.0001    0.0000 C   0  0  0  0  0  0  0  0  0  0  0  0
    1.7350    2.0001    0.0000 N   0  0  0  0  0  0  0  0  0  0  0  0
    0.8675    1.5027    0.0000 C   0  0  0  0  0  0  0  0  0  0  0  0
    0.8675    0.4975    0.0000 C   0  0  0  0  0  0  0  0  0  0  0  0
    0.0000    0.0000    0.0000 C   0  0  0  0  0  0  0  0  0  0  0  0
   -0.8675    0.4975    0.0000 C   0  0  0  0  0  0  0  0  0  0  0  0
   -0.8675    1.5027    0.0000 C   0  0  0  0  0  0  0  0  0  0  0  0
    0.0000    2.0104    0.0000 C   0  0  0  0  0  0  0  0  0  0  0  0
    3.4729    3.9950    0.0000 C   0  0  0  0  0  0  0  0  0  0  0  0
    3.4759    4.9950    0.0000 O   0  0  0  0  0  0  0  0  0  0  0  0
    4.3434    5.4925    0.0000 C   0  0  0  0  0  0  0  0  0  0  0  0
    4.3478    6.4925    0.0000 C   0  0  0  0  0  0  0  0  0  0  0  0
    5.2131    6.9937    0.0000 C   0  0  0  0  0  0  0  0  0  0  0  0
    6.0829    6.4898    0.0000 C   0  0  0  0  0  0  0  0  0  0  0  0
    6.0873    5.4847    0.0000 C   0  0  0  0  0  0  0  0  0  0  0  0
    5.2132    4.9886    0.0000 C   0  0  0  0  0  0  0  0  0  0  0  0
    5.2087    3.9886    0.0000 C   0  0  0  0  0  0  0  0  0  0  0  0
    4.3405    3.4924    0.0000 O   0  0  0  0  0  0  0  0  0  0  0  0
    6.0725    3.4847    0.0000 C   0  0  0  0  0  0  0  0  0  0  0  0
    6.0681    2.4847    0.0000 C   0  0  0  0  0  0  0  0  0  0  0  0
    6.9318    1.9809    0.0000 C   0  0  0  0  0  0  0  0  0  0  0  0
    7.8031    2.4822    0.0000 C   0  0  0  0  0  0  0  0  0  0  0  0
    8.6670    1.9784    0.0000 C   0  0  0  0  0  0  0  0  0  0  0  0
    8.6684    0.9783    0.0000 C   0  0  0  0  0  0  0  0  0  0  0  0
    7.7971    0.4770    0.0000 C   0  0  0  0  0  0  0  0  0  0  0  0
    6.9244    0.9758    0.0000 C   0  0  0  0  0  0  0  0  0  0  0  0
  1  2  1  0  0  0  0
  2  3  1  1  0  0  0
  2  4  1  0  0  0  0
  4  5  1  0  0  0  0
  5  6  1  0  0  0  0
  6 11  1  0  0  0  0
  6  7  1  0  0  0  0
  7  8  1  0  0  0  0
  8  9  1  0  0  0  0
  9 10  1  0  0  0  0
 10 11  1  0  0  0  0
  2 12  1  0  0  0  0
 12 13  1  0  0  0  0
 13 14  1  0  0  0  0
 14 19  2  0  0  0  0
 14 15  1  0  0  0  0
 15 16  2  0  0  0  0
 16 17  1  0  0  0  0
 17 18  2  0  0  0  0
 18 19  1  0  0  0  0
 19 20  1  0  0  0  0
 20 21  2  0  0  0  0
 20 22  1  0  0  0  0
 22 23  1  0  0  0  0
 23 24  1  0  0  0  0
 24 29  2  0  0  0  0
 24 25  1  0  0  0  0
 25 26  2  0  0  0  0
 26 27  1  0  0  0  0
 27 28  2  0  0  0  0
 28 29  1  0  0  0  0
M  END
> <ID>
1591123

$$$$
1591124
  -OEChem-05171416412D

 30 31  0     1  0  0  0  0  0999 V2000
   -3.4598   -5.0025    0.0000 C   0  0  0  0  0  0  0  0  0  0  0  0
   -3.4612   -4.0025    0.0000 C   0  0  0  0  0  0  0  0  0  0  0  0
   -2.5959   -3.5013    0.0000 C   0  0  0  0  0  0  0  0  0  0  0  0
   -4.3280   -3.5038    0.0000 N   0  0  0  0  0  0  0  0  0  0  0  0
   -4.3294   -2.5038    0.0000 C   0  0  0  0  0  0  0  0  0  0  0  0
   -3.4641   -2.0025    0.0000 C   0  0  1  0  0  0  0  0  0  0  0  0
   -2.9629   -2.8678    0.0000 H   0  0  0  0  0  0  0  0  0  0  0  0
   -3.9654   -1.1372    0.0000 O   0  0  0  0  0  0  0  0  0  0  0  0
   -2.5988   -1.5013    0.0000 C   0  0  0  0  0  0  0  0  0  0  0  0
   -2.6003   -0.5013    0.0000 O   0  0  0  0  0  0  0  0  0  0  0  0
   -1.7350   -0.0000    0.0000 C   0  0  0  0  0  0  0  0  0  0  0  0
   -0.8675   -0.4975    0.0000 C   0  0  0  0  0  0  0  0  0  0  0  0
    0.0000    0.0000    0.0000 C   0  0  0  0  0  0  0  0  0  0  0  0
   -0.0000    1.0052    0.0000 C   0  0  0  0  0  0  0  0  0  0  0  0
    0.8675    1.5026    0.0000 O   0  0  0  0  0  0  0  0  0  0  0  0
   -0.8675    1.5129    0.0000 C   0  0  0  0  0  0  0  0  0  0  0  0
   -1.7350    1.0052    0.0000 C   0  0  0  0  0  0  0  0  0  0  0  0
   -2.6025    1.5026    0.0000 C   0  0  0  0  0  0  0  0  0  0  0  0
   -2.6054    2.5026    0.0000 O   0  0  0  0  0  0  0  0  0  0  0  0
   -3.4670    1.0001    0.0000 C   0  0  0  0  0  0  0  0  0  0  0  0
   -4.3345    1.4975    0.0000 C   0  0  0  0  0  0  0  0  0  0  0  0
   -5.1991    0.9950    0.0000 C   0  0  0  0  0  0  0  0  0  0  0  0
   -5.1932   -0.0102    0.0000 C   0  0  0  0  0  0  0  0  0  0  0  0
   -6.0577   -0.5128    0.0000 C   0  0  0  0  0  0  0  0  0  0  0  0
   -6.9281   -0.0204    0.0000 C   0  0  0  0  0  0  0  0  0  0  0  0
   -6.9341    0.9847    0.0000 C   0  0  0  0  0  0  0  0  0  0  0  0
   -6.0696    1.4976    0.0000 C   0  0  0  0  0  0  0  0  0  0  0  0
   -5.1933   -4.0050    0.0000 C   0  0  0  0  0  0  0  0  0  0  0  0
   -6.0600   -3.5063    0.0000 C   0  0  0  0  0  0  0  0  0  0  0  0
   -5.1918   -5.0050    0.0000 C   0  0  0  0  0  0  0  0  0  0  0  0
  1  2  1  0  0  0  0
  2  3  1  0  0  0  0
  2  4  1  0  0  0  0
  4  5  1  0  0  0  0
  5  6  1  0  0  0  0
  6  7  1  6  0  0  0
  6  8  1  0  0  0  0
  6  9  1  0  0  0  0
  9 10  1  0  0  0  0
 10 11  1  0  0  0  0
 11 17  2  0  0  0  0
 11 12  1  0  0  0  0
 12 13  2  0  0  0  0
 13 14  1  0  0  0  0
 14 15  1  0  0  0  0
 14 16  2  0  0  0  0
 16 17  1  0  0  0  0
 17 18  1  0  0  0  0
 18 19  2  0  0  0  0
 18 20  1  0  0  0  0
 20 21  1  0  0  0  0
 21 22  1  0  0  0  0
 22 27  2  0  0  0  0
 22 23  1  0  0  0  0
 23 24  2  0  0  0  0
 24 25  1  0  0  0  0
 25 26  2  0  0  0  0
 26 27  1  0  0  0  0
  4 28  1  0  0  0  0
 28 29  1  0  0  0  0
 28 30  1  0  0  0  0
M  END
> <ID>
1591124

$$$$
1591125
  -OEChem-05171416412D

 37 39  0     1  0  0  0  0  0999 V2000
   -3.4598   -5.0025    0.0000 C   0  0  0  0  0  0  0  0  0  0  0  0
   -3.4612   -4.0025    0.0000 C   0  0  0  0  0  0  0  0  0  0  0  0
   -2.5959   -3.5013    0.0000 C   0  0  0  0  0  0  0  0  0  0  0  0
   -4.3280   -3.5038    0.0000 N   0  0  0  0  0  0  0  0  0  0  0  0
   -4.3294   -2.5038    0.0000 C   0  0  0  0  0  0  0  0  0  0  0  0
   -3.4641   -2.0025    0.0000 C   0  0  1  0  0  0  0  0  0  0  0  0
   -2.9629   -2.8678    0.0000 H   0  0  0  0  0  0  0  0  0  0  0  0
   -3.9654   -1.1372    0.0000 O   0  0  0  0  0  0  0  0  0  0  0  0
   -2.5988   -1.5013    0.0000 C   0  0  0  0  0  0  0  0  0  0  0  0
   -2.6003   -0.5013    0.0000 O   0  0  0  0  0  0  0  0  0  0  0  0
   -1.7350   -0.0000    0.0000 C   0  0  0  0  0  0  0  0  0  0  0  0
   -0.8675   -0.4975    0.0000 C   0  0  0  0  0  0  0  0  0  0  0  0
    0.0000    0.0000    0.0000 C   0  0  0  0  0  0  0  0  0  0  0  0
   -0.0000    1.0052    0.0000 C   0  0  0  0  0  0  0  0  0  0  0  0
    0.8675    1.5026    0.0000 O   0  0  0  0  0  0  0  0  0  0  0  0
    0.8704    2.5026    0.0000 C   0  0  0  0  0  0  0  0  0  0  0  0
    1.7379    3.0001    0.0000 C   0  0  0  0  0  0  0  0  0  0  0  0
    1.7379    4.0053    0.0000 C   0  0  0  0  0  0  0  0  0  0  0  0
    2.6054    4.5028    0.0000 C   0  0  0  0  0  0  0  0  0  0  0  0
    3.4729    4.0053    0.0000 C   0  0  0  0  0  0  0  0  0  0  0  0
    3.4729    3.0001    0.0000 C   0  0  0  0  0  0  0  0  0  0  0  0
    2.6054    2.4924    0.0000 C   0  0  0  0  0  0  0  0  0  0  0  0
   -0.8675    1.5129    0.0000 C   0  0  0  0  0  0  0  0  0  0  0  0
   -1.7350    1.0052    0.0000 C   0  0  0  0  0  0  0  0  0  0  0  0
   -2.6025    1.5026    0.0000 C   0  0  0  0  0  0  0  0  0  0  0  0
   -2.6054    2.5026    0.0000 O   0  0  0  0  0  0  0  0  0  0  0  0
   -3.4670    1.0001    0.0000 C   0  0  0  0  0  0  0  0  0  0  0  0
   -4.3345    1.4975    0.0000 C   0  0  0  0  0  0  0  0  0  0  0  0
   -5.1991    0.9950    0.0000 C   0  0  0  0  0  0  0  0  0  0  0  0
   -5.1932   -0.0102    0.0000 C   0  0  0  0  0  0  0  0  0  0  0  0
   -6.0577   -0.5128    0.0000 C   0  0  0  0  0  0  0  0  0  0  0  0
   -6.9281   -0.0204    0.0000 C   0  0  0  0  0  0  0  0  0  0  0  0
   -6.9341    0.9847    0.0000 C   0  0  0  0  0  0  0  0  0  0  0  0
   -6.0696    1.4976    0.0000 C   0  0  0  0  0  0  0  0  0  0  0  0
   -5.1933   -4.0050    0.0000 C   0  0  0  0  0  0  0  0  0  0  0  0
   -6.0600   -3.5063    0.0000 C   0  0  0  0  0  0  0  0  0  0  0  0
   -5.1918   -5.0050    0.0000 C   0  0  0  0  0  0  0  0  0  0  0  0
  1  2  1  0  0  0  0
  2  3  1  0  0  0  0
  2  4  1  0  0  0  0
  4  5  1  0  0  0  0
  5  6  1  0  0  0  0
  6  7  1  6  0  0  0
  6  8  1  0  0  0  0
  6  9  1  0  0  0  0
  9 10  1  0  0  0  0
 10 11  1  0  0  0  0
 11 24  2  0  0  0  0
 11 12  1  0  0  0  0
 12 13  2  0  0  0  0
 13 14  1  0  0  0  0
 14 15  1  0  0  0  0
 15 16  1  0  0  0  0
 16 17  1  0  0  0  0
 17 22  2  0  0  0  0
 17 18  1  0  0  0  0
 18 19  2  0  0  0  0
 19 20  1  0  0  0  0
 20 21  2  0  0  0  0
 21 22  1  0  0  0  0
 14 23  2  0  0  0  0
 23 24  1  0  0  0  0
 24 25  1  0  0  0  0
 25 26  2  0  0  0  0
 25 27  1  0  0  0  0
 27 28  1  0  0  0  0
 28 29  1  0  0  0  0
 29 34  2  0  0  0  0
 29 30  1  0  0  0  0
 30 31  2  0  0  0  0
 31 32  1  0  0  0  0
 32 33  2  0  0  0  0
 33 34  1  0  0  0  0
  4 35  1  0  0  0  0
 35 36  1  0  0  0  0
 35 37  1  0  0  0  0
M  END
> <ID>
1591125

$$$$
1591126
  -OEChem-05171416412D

 43 47  0     1  0  0  0  0  0999 V2000
    1.2334    3.8786    0.0000 O   0  0  0  0  0  0  0  0  0  0  0  0
    1.7334    3.0126    0.0000 C   0  0  1  0  0  0  0  0  0  0  0  0
    2.2334    2.1466    0.0000 H   0  0  0  0  0  0  0  0  0  0  0  0
    2.5995    3.5126    0.0000 C   0  0  0  0  0  0  0  0  0  0  0  0
    2.5995    4.5126    0.0000 O   0  0  0  0  0  0  0  0  0  0  0  0
    3.4655    5.0126    0.0000 C   0  0  0  0  0  0  0  0  0  0  0  0
    4.3323    4.5138    0.0000 C   0  0  0  0  0  0  0  0  0  0  0  0
    5.2005    5.0101    0.0000 C   0  0  0  0  0  0  0  0  0  0  0  0
    5.2019    6.0153    0.0000 C   0  0  0  0  0  0  0  0  0  0  0  0
    6.0702    6.5115    0.0000 O   0  0  0  0  0  0  0  0  0  0  0  0
    6.0746    7.5115    0.0000 C   0  0  0  0  0  0  0  0  0  0  0  0
    6.9428    8.0076    0.0000 C   0  0  0  0  0  0  0  0  0  0  0  0
    6.9442    9.0128    0.0000 C   0  0  0  0  0  0  0  0  0  0  0  0
    7.8125    9.5091    0.0000 C   0  0  0  0  0  0  0  0  0  0  0  0
    8.6792    9.0103    0.0000 C   0  0  0  0  0  0  0  0  0  0  0  0
    8.6778    8.0051    0.0000 C   0  0  0  0  0  0  0  0  0  0  0  0
    7.8095    7.4987    0.0000 C   0  0  0  0  0  0  0  0  0  0  0  0
    4.3352    6.5242    0.0000 C   0  0  0  0  0  0  0  0  0  0  0  0
    3.4669    6.0178    0.0000 C   0  0  0  0  0  0  0  0  0  0  0  0
    2.6002    6.5165    0.0000 C   0  0  0  0  0  0  0  0  0  0  0  0
    2.5987    7.5165    0.0000 O   0  0  0  0  0  0  0  0  0  0  0  0
    1.7349    6.0152    0.0000 C   0  0  0  0  0  0  0  0  0  0  0  0
    0.8681    6.5139    0.0000 C   0  0  0  0  0  0  0  0  0  0  0  0
    0.0028    6.0126    0.0000 C   0  0  0  0  0  0  0  0  0  0  0  0
    0.0073    5.0074    0.0000 C   0  0  0  0  0  0  0  0  0  0  0  0
   -0.8580    4.5061    0.0000 C   0  0  0  0  0  0  0  0  0  0  0  0
   -1.7277    4.9997    0.0000 C   0  0  0  0  0  0  0  0  0  0  0  0
   -1.7321    6.0049    0.0000 C   0  0  0  0  0  0  0  0  0  0  0  0
   -0.8669    6.5164    0.0000 C   0  0  0  0  0  0  0  0  0  0  0  0
    0.8674    2.5126    0.0000 C   0  0  0  0  0  0  0  0  0  0  0  0
    0.8674    1.5126    0.0000 N   0  0  0  0  0  0  0  0  0  0  0  0
    0.0000    1.0051    0.0000 C   0  0  0  0  0  0  0  0  0  0  0  0
    0.0000    0.0000    0.0000 C   0  0  0  0  0  0  0  0  0  0  0  0
    0.8674   -0.4976    0.0000 N   0  0  0  0  0  0  0  0  0  0  0  0
    0.8674   -1.4976    0.0000 C   0  0  0  0  0  0  0  0  0  0  0  0
    1.7334   -1.9976    0.0000 C   0  0  0  0  0  0  0  0  0  0  0  0
    2.6025   -1.4924    0.0000 C   0  0  0  0  0  0  0  0  0  0  0  0
    3.4685   -1.9924    0.0000 C   0  0  0  0  0  0  0  0  0  0  0  0
    3.4744   -2.9924    0.0000 C   0  0  0  0  0  0  0  0  0  0  0  0
    2.6054   -3.4976    0.0000 C   0  0  0  0  0  0  0  0  0  0  0  0
    1.7305   -3.0027    0.0000 C   0  0  0  0  0  0  0  0  0  0  0  0
    1.7348    0.0000    0.0000 C   0  0  0  0  0  0  0  0  0  0  0  0
    1.7348    1.0051    0.0000 C   0  0  0  0  0  0  0  0  0  0  0  0
  1  2  1  0  0  0  0
  2  3  1  6  0  0  0
  2  4  1  0  0  0  0
  4  5  1  0  0  0  0
  5  6  1  0  0  0  0
  6 19  2  0  0  0  0
  6  7  1  0  0  0  0
  7  8  2  0  0  0  0
  8  9  1  0  0  0  0
  9 10  1  0  0  0  0
 10 11  1  0  0  0  0
 11 12  1  0  0  0  0
 12 17  2  0  0  0  0
 12 13  1  0  0  0  0
 13 14  2  0  0  0  0
 14 15  1  0  0  0  0
 15 16  2  0  0  0  0
 16 17  1  0  0  0  0
  9 18  2  0  0  0  0
 18 19  1  0  0  0  0
 19 20  1  0  0  0  0
 20 21  2  0  0  0  0
 20 22  1  0  0  0  0
 22 23  1  0  0  0  0
 23 24  1  0  0  0  0
 24 29  2  0  0  0  0
 24 25  1  0  0  0  0
 25 26  2  0  0  0  0
 26 27  1  0  0  0  0
 27 28  2  0  0  0  0
 28 29  1  0  0  0  0
  2 30  1  0  0  0  0
 30 31  1  0  0  0  0
 31 43  1  0  0  0  0
 31 32  1  0  0  0  0
 32 33  1  0  0  0  0
 33 34  1  0  0  0  0
 34 35  1  0  0  0  0
 35 36  1  0  0  0  0
 36 41  2  0  0  0  0
 36 37  1  0  0  0  0
 37 38  2  0  0  0  0
 38 39  1  0  0  0  0
 39 40  2  0  0  0  0
 40 41  1  0  0  0  0
 34 42  1  0  0  0  0
 42 43  1  0  0  0  0
M  END
> <ID>
1591126

$$$$
1591127
  -OEChem-05171416412D

 36 39  0     1  0  0  0  0  0999 V2000
    1.2334    3.8786    0.0000 O   0  0  0  0  0  0  0  0  0  0  0  0
    1.7334    3.0126    0.0000 C   0  0  1  0  0  0  0  0  0  0  0  0
    2.2334    2.1466    0.0000 H   0  0  0  0  0  0  0  0  0  0  0  0
    2.5995    3.5126    0.0000 C   0  0  0  0  0  0  0  0  0  0  0  0
    2.5995    4.5126    0.0000 O   0  0  0  0  0  0  0  0  0  0  0  0
    3.4655    5.0126    0.0000 C   0  0  0  0  0  0  0  0  0  0  0  0
    4.3323    4.5138    0.0000 C   0  0  0  0  0  0  0  0  0  0  0  0
    5.2005    5.0101    0.0000 C   0  0  0  0  0  0  0  0  0  0  0  0
    5.2019    6.0153    0.0000 C   0  0  0  0  0  0  0  0  0  0  0  0
    6.0702    6.5115    0.0000 O   0  0  0  0  0  0  0  0  0  0  0  0
    4.3352    6.5242    0.0000 C   0  0  0  0  0  0  0  0  0  0  0  0
    3.4669    6.0178    0.0000 C   0  0  0  0  0  0  0  0  0  0  0  0
    2.6002    6.5165    0.0000 C   0  0  0  0  0  0  0  0  0  0  0  0
    2.5987    7.5165    0.0000 O   0  0  0  0  0  0  0  0  0  0  0  0
    1.7349    6.0152    0.0000 C   0  0  0  0  0  0  0  0  0  0  0  0
    0.8681    6.5139    0.0000 C   0  0  0  0  0  0  0  0  0  0  0  0
    0.0028    6.0126    0.0000 C   0  0  0  0  0  0  0  0  0  0  0  0
    0.0073    5.0074    0.0000 C   0  0  0  0  0  0  0  0  0  0  0  0
   -0.8580    4.5061    0.0000 C   0  0  0  0  0  0  0  0  0  0  0  0
   -1.7277    4.9997    0.0000 C   0  0  0  0  0  0  0  0  0  0  0  0
   -1.7321    6.0049    0.0000 C   0  0  0  0  0  0  0  0  0  0  0  0
   -0.8669    6.5164    0.0000 C   0  0  0  0  0  0  0  0  0  0  0  0
    0.8674    2.5126    0.0000 C   0  0  0  0  0  0  0  0  0  0  0  0
    0.8674    1.5126    0.0000 N   0  0  0  0  0  0  0  0  0  0  0  0
    0.0000    1.0051    0.0000 C   0  0  0  0  0  0  0  0  0  0  0  0
    0.0000    0.0000    0.0000 C   0  0  0  0  0  0  0  0  0  0  0  0
    0.8674   -0.4976    0.0000 N   0  0  0  0  0  0  0  0  0  0  0  0
    0.8674   -1.4976    0.0000 C   0  0  0  0  0  0  0  0  0  0  0  0
    1.7334   -1.9976    0.0000 C   0  0  0  0  0  0  0  0  0  0  0  0
    2.6025   -1.4924    0.0000 C   0  0  0  0  0  0  0  0  0  0  0  0
    3.4685   -1.9924    0.0000 C   0  0  0  0  0  0  0  0  0  0  0  0
    3.4744   -2.9924    0.0000 C   0  0  0  0  0  0  0  0  0  0  0  0
    2.6054   -3.4976    0.0000 C   0  0  0  0  0  0  0  0  0  0  0  0
    1.7305   -3.0027    0.0000 C   0  0  0  0  0  0  0  0  0  0  0  0
    1.7348    0.0000    0.0000 C   0  0  0  0  0  0  0  0  0  0  0  0
    1.7348    1.0051    0.0000 C   0  0  0  0  0  0  0  0  0  0  0  0
  1  2  1  0  0  0  0
  2  3  1  6  0  0  0
  2  4  1  0  0  0  0
  4  5  1  0  0  0  0
  5  6  1  0  0  0  0
  6 12  2  0  0  0  0
  6  7  1  0  0  0  0
  7  8  2  0  0  0  0
  8  9  1  0  0  0  0
  9 10  1  0  0  0  0
  9 11  2  0  0  0  0
 11 12  1  0  0  0  0
 12 13  1  0  0  0  0
 13 14  2  0  0  0  0
 13 15  1  0  0  0  0
 15 16  1  0  0  0  0
 16 17  1  0  0  0  0
 17 22  2  0  0  0  0
 17 18  1  0  0  0  0
 18 19  2  0  0  0  0
 19 20  1  0  0  0  0
 20 21  2  0  0  0  0
 21 22  1  0  0  0  0
  2 23  1  0  0  0  0
 23 24  1  0  0  0  0
 24 36  1  0  0  0  0
 24 25  1  0  0  0  0
 25 26  1  0  0  0  0
 26 27  1  0  0  0  0
 27 28  1  0  0  0  0
 28 29  1  0  0  0  0
 29 34  2  0  0  0  0
 29 30  1  0  0  0  0
 30 31  2  0  0  0  0
 31 32  1  0  0  0  0
 32 33  2  0  0  0  0
 33 34  1  0  0  0  0
 27 35  1  0  0  0  0
 35 36  1  0  0  0  0
M  END
> <ID>
1591127

$$$$
1591128
  -OEChem-05171416412D

 32 34  0     1  0  0  0  0  0999 V2000
   -0.2691    5.2792    0.0000 C   0  0  0  0  0  0  0  0  0  0  0  0
    0.2296    6.1460    0.0000 C   0  0  0  0  0  0  0  0  0  0  0  0
   -0.2717    7.0113    0.0000 C   0  0  0  0  0  0  0  0  0  0  0  0
    1.2296    6.1475    0.0000 O   0  0  0  0  0  0  0  0  0  0  0  0
    1.7283    7.0143    0.0000 C   0  0  2  0  0  0  0  0  0  0  0  0
    2.2270    7.8811    0.0000 H   0  0  0  0  0  0  0  0  0  0  0  0
    0.8616    7.5130    0.0000 C   0  0  0  0  0  0  0  0  0  0  0  0
    0.8601    8.5130    0.0000 C   0  0  0  0  0  0  0  0  0  0  0  0
   -0.0067    9.0117    0.0000 C   0  0  0  0  0  0  0  0  0  0  0  0
   -0.0053   10.0169    0.0000 C   0  0  0  0  0  0  0  0  0  0  0  0
   -0.8720   10.5157    0.0000 C   0  0  0  0  0  0  0  0  0  0  0  0
   -1.7403   10.0194    0.0000 C   0  0  0  0  0  0  0  0  0  0  0  0
   -1.7417    9.0142    0.0000 C   0  0  0  0  0  0  0  0  0  0  0  0
   -0.8749    8.5053    0.0000 C   0  0  0  0  0  0  0  0  0  0  0  0
    2.5951    6.5156    0.0000 C   0  0  0  0  0  0  0  0  0  0  0  0
    3.4611    7.0157    0.0000 C   0  0  0  0  0  0  0  0  0  0  0  0
    4.3301    6.5207    0.0000 C   0  0  0  0  0  0  0  0  0  0  0  0
    4.3331    5.5155    0.0000 C   0  0  0  0  0  0  0  0  0  0  0  0
    3.4671    5.0053    0.0000 C   0  0  0  0  0  0  0  0  0  0  0  0
    2.5981    5.5104    0.0000 C   0  0  0  0  0  0  0  0  0  0  0  0
    1.7321    5.0104    0.0000 O   0  0  0  0  0  0  0  0  0  0  0  0
    1.7321    4.0104    0.0000 C   0  0  0  0  0  0  0  0  0  0  0  0
    0.8660    3.5104    0.0000 C   0  0  2  0  0  0  0  0  0  0  0  0
    1.3660    2.6444    0.0000 H   0  0  0  0  0  0  0  0  0  0  0  0
    0.3660    4.3764    0.0000 O   0  0  0  0  0  0  0  0  0  0  0  0
   -0.0000    3.0104    0.0000 C   0  0  0  0  0  0  0  0  0  0  0  0
   -0.0000    2.0104    0.0000 N   0  0  0  0  0  0  0  0  0  0  0  0
   -0.8675    1.5027    0.0000 C   0  0  0  0  0  0  0  0  0  0  0  0
   -0.8675    0.4975    0.0000 C   0  0  0  0  0  0  0  0  0  0  0  0
    0.0000    0.0000    0.0000 C   0  0  0  0  0  0  0  0  0  0  0  0
    0.8675    0.4975    0.0000 C   0  0  0  0  0  0  0  0  0  0  0  0
    0.8675    1.5027    0.0000 C   0  0  0  0  0  0  0  0  0  0  0  0
  1  2  1  0  0  0  0
  2  3  1  0  0  0  0
  2  4  1  0  0  0  0
  4  5  1  0  0  0  0
  5  6  1  1  0  0  0
  5  7  1  0  0  0  0
  7  8  1  0  0  0  0
  8  9  1  0  0  0  0
  9 14  2  0  0  0  0
  9 10  1  0  0  0  0
 10 11  2  0  0  0  0
 11 12  1  0  0  0  0
 12 13  2  0  0  0  0
 13 14  1  0  0  0  0
  5 15  1  0  0  0  0
 15 20  2  0  0  0  0
 15 16  1  0  0  0  0
 16 17  2  0  0  0  0
 17 18  1  0  0  0  0
 18 19  2  0  0  0  0
 19 20  1  0  0  0  0
 20 21  1  0  0  0  0
 21 22  1  0  0  0  0
 22 23  1  0  0  0  0
 23 24  1  6  0  0  0
 23 25  1  0  0  0  0
 23 26  1  0  0  0  0
 26 27  1  0  0  0  0
 27 32  1  0  0  0  0
 27 28  1  0  0  0  0
 28 29  1  0  0  0  0
 29 30  1  0  0  0  0
 30 31  1  0  0  0  0
 31 32  1  0  0  0  0
M  END
> <ID>
1591128

$$$$
1591129
  -OEChem-05171416412D

 33 35  0     1  0  0  0  0  0999 V2000
    3.2244    9.6146    0.0000 C   0  0  0  0  0  0  0  0  0  0  0  0
    2.7257    8.7478    0.0000 C   0  0  0  0  0  0  0  0  0  0  0  0
    1.8590    9.2465    0.0000 C   0  0  0  0  0  0  0  0  0  0  0  0
    3.5925    8.2491    0.0000 C   0  0  0  0  0  0  0  0  0  0  0  0
    2.2270    7.8811    0.0000 O   0  0  0  0  0  0  0  0  0  0  0  0
    1.7283    7.0143    0.0000 C   0  0  2  0  0  0  0  0  0  0  0  0
    1.2296    6.1475    0.0000 H   0  0  0  0  0  0  0  0  0  0  0  0
    0.8616    7.5130    0.0000 C   0  0  0  0  0  0  0  0  0  0  0  0
    0.8601    8.5130    0.0000 C   0  0  0  0  0  0  0  0  0  0  0  0
   -0.0067    9.0117    0.0000 C   0  0  0  0  0  0  0  0  0  0  0  0
   -0.0053   10.0169    0.0000 C   0  0  0  0  0  0  0  0  0  0  0  0
   -0.8720   10.5157    0.0000 C   0  0  0  0  0  0  0  0  0  0  0  0
   -1.7403   10.0194    0.0000 C   0  0  0  0  0  0  0  0  0  0  0  0
   -1.7417    9.0142    0.0000 C   0  0  0  0  0  0  0  0  0  0  0  0
   -0.8749    8.5053    0.0000 C   0  0  0  0  0  0  0  0  0  0  0  0
    2.5951    6.5156    0.0000 C   0  0  0  0  0  0  0  0  0  0  0  0
    3.4611    7.0157    0.0000 C   0  0  0  0  0  0  0  0  0  0  0  0
    4.3301    6.5207    0.0000 C   0  0  0  0  0  0  0  0  0  0  0  0
    4.3331    5.5155    0.0000 C   0  0  0  0  0  0  0  0  0  0  0  0
    3.4671    5.0053    0.0000 C   0  0  0  0  0  0  0  0  0  0  0  0
    2.5981    5.5104    0.0000 C   0  0  0  0  0  0  0  0  0  0  0  0
    1.7321    5.0104    0.0000 O   0  0  0  0  0  0  0  0  0  0  0  0
    1.7321    4.0104    0.0000 C   0  0  0  0  0  0  0  0  0  0  0  0
    0.8660    3.5104    0.0000 C   0  0  2  0  0  0  0  0  0  0  0  0
    1.3660    2.6444    0.0000 H   0  0  0  0  0  0  0  0  0  0  0  0
    0.3660    4.3764    0.0000 O   0  0  0  0  0  0  0  0  0  0  0  0
   -0.0000    3.0104    0.0000 C   0  0  0  0  0  0  0  0  0  0  0  0
   -0.0000    2.0104    0.0000 N   0  0  0  0  0  0  0  0  0  0  0  0
   -0.8675    1.5027    0.0000 C   0  0  0  0  0  0  0  0  0  0  0  0
   -0.8675    0.4975    0.0000 C   0  0  0  0  0  0  0  0  0  0  0  0
    0.0000    0.0000    0.0000 C   0  0  0  0  0  0  0  0  0  0  0  0
    0.8675    0.4975    0.0000 C   0  0  0  0  0  0  0  0  0  0  0  0
    0.8675    1.5027    0.0000 C   0  0  0  0  0  0  0  0  0  0  0  0
  1  2  1  0  0  0  0
  2  3  1  0  0  0  0
  2  4  1  0  0  0  0
  2  5  1  0  0  0  0
  5  6  1  0  0  0  0
  6  7  1  6  0  0  0
  6  8  1  0  0  0  0
  8  9  1  0  0  0  0
  9 10  1  0  0  0  0
 10 15  2  0  0  0  0
 10 11  1  0  0  0  0
 11 12  2  0  0  0  0
 12 13  1  0  0  0  0
 13 14  2  0  0  0  0
 14 15  1  0  0  0  0
  6 16  1  0  0  0  0
 16 21  2  0  0  0  0
 16 17  1  0  0  0  0
 17 18  2  0  0  0  0
 18 19  1  0  0  0  0
 19 20  2  0  0  0  0
 20 21  1  0  0  0  0
 21 22  1  0  0  0  0
 22 23  1  0  0  0  0
 23 24  1  0  0  0  0
 24 25  1  6  0  0  0
 24 26  1  0  0  0  0
 24 27  1  0  0  0  0
 27 28  1  0  0  0  0
 28 33  1  0  0  0  0
 28 29  1  0  0  0  0
 29 30  1  0  0  0  0
 30 31  1  0  0  0  0
 31 32  1  0  0  0  0
 32 33  1  0  0  0  0
M  END
> <ID>
1591129

$$$$
1591130
  -OEChem-05171416412D

 33 36  0     1  0  0  0  0  0999 V2000
    0.3660    4.3764    0.0000 O   0  0  0  0  0  0  0  0  0  0  0  0
    0.8660    3.5104    0.0000 C   0  0  1  0  0  0  0  0  0  0  0  0
    1.3660    2.6444    0.0000 H   0  0  0  0  0  0  0  0  0  0  0  0
    1.7321    4.0104    0.0000 C   0  0  0  0  0  0  0  0  0  0  0  0
    1.7321    5.0104    0.0000 O   0  0  0  0  0  0  0  0  0  0  0  0
    2.5981    5.5104    0.0000 C   0  0  0  0  0  0  0  0  0  0  0  0
    2.5995    6.5104    0.0000 C   0  0  0  0  0  0  0  0  0  0  0  0
    3.4634    7.0142    0.0000 C   0  0  0  0  0  0  0  0  0  0  0  0
    4.3347    6.5129    0.0000 C   0  0  0  0  0  0  0  0  0  0  0  0
    4.3420    5.5078    0.0000 C   0  0  0  0  0  0  0  0  0  0  0  0
    3.4693    5.0091    0.0000 C   0  0  0  0  0  0  0  0  0  0  0  0
    3.4678    4.0091    0.0000 C   0  0  0  0  0  0  0  0  0  0  0  0
    2.6011    3.5104    0.0000 O   0  0  0  0  0  0  0  0  0  0  0  0
    4.3331    3.5078    0.0000 C   0  0  0  0  0  0  0  0  0  0  0  0
    5.2029    4.0116    0.0000 C   0  0  0  0  0  0  0  0  0  0  0  0
    6.0682    3.5104    0.0000 C   0  0  0  0  0  0  0  0  0  0  0  0
    6.0726    2.5103    0.0000 C   0  0  0  0  0  0  0  0  0  0  0  0
    5.2028    2.0065    0.0000 C   0  0  0  0  0  0  0  0  0  0  0  0
    4.3286    2.5026    0.0000 C   0  0  0  0  0  0  0  0  0  0  0  0
   -0.0000    3.0104    0.0000 C   0  0  0  0  0  0  0  0  0  0  0  0
   -0.0000    2.0104    0.0000 N   0  0  0  0  0  0  0  0  0  0  0  0
   -0.8675    1.5027    0.0000 C   0  0  0  0  0  0  0  0  0  0  0  0
   -0.8675    0.4975    0.0000 C   0  0  0  0  0  0  0  0  0  0  0  0
    0.0000    0.0000    0.0000 C   0  0  0  0  0  0  0  0  0  0  0  0
    0.6420   -0.7667    0.0000 O   0  0  0  0  0  0  0  0  0  0  0  0
    0.8675    0.4975    0.0000 C   0  0  0  0  0  0  0  0  0  0  0  0
    0.8675    1.5027    0.0000 C   0  0  0  0  0  0  0  0  0  0  0  0
   -0.6420   -0.7667    0.0000 C   0  0  0  0  0  0  0  0  0  0  0  0
   -0.2946   -1.7099    0.0000 C   0  0  0  0  0  0  0  0  0  0  0  0
   -0.9366   -2.4766    0.0000 C   0  0  0  0  0  0  0  0  0  0  0  0
   -1.9226   -2.3097    0.0000 C   0  0  0  0  0  0  0  0  0  0  0  0
   -2.2701   -1.3665    0.0000 C   0  0  0  0  0  0  0  0  0  0  0  0
   -1.6316   -0.5902    0.0000 C   0  0  0  0  0  0  0  0  0  0  0  0
  1  2  1  0  0  0  0
  2  3  1  6  0  0  0
  2  4  1  0  0  0  0
  4  5  1  0  0  0  0
  5  6  1  0  0  0  0
  6 11  2  0  0  0  0
  6  7  1  0  0  0  0
  7  8  2  0  0  0  0
  8  9  1  0  0  0  0
  9 10  2  0  0  0  0
 10 11  1  0  0  0  0
 11 12  1  0  0  0  0
 12 13  2  0  0  0  0
 12 14  1  0  0  0  0
 14 19  2  0  0  0  0
 14 15  1  0  0  0  0
 15 16  2  0  0  0  0
 16 17  1  0  0  0  0
 17 18  2  0  0  0  0
 18 19  1  0  0  0  0
  2 20  1  0  0  0  0
 20 21  1  0  0  0  0
 21 27  1  0  0  0  0
 21 22  1  0  0  0  0
 22 23  1  0  0  0  0
 23 24  1  0  0  0  0
 24 25  1  0  0  0  0
 24 26  1  0  0  0  0
 26 27  1  0  0  0  0
 24 28  1  0  0  0  0
 28 33  2  0  0  0  0
 28 29  1  0  0  0  0
 29 30  2  0  0  0  0
 30 31  1  0  0  0  0
 31 32  2  0  0  0  0
 32 33  1  0  0  0  0
M  END
> <ID>
1591130

$$$$
1591131
  -OEChem-05171416412D

 33 36  0     1  0  0  0  0  0999 V2000
    1.2334    3.8786    0.0000 O   0  0  0  0  0  0  0  0  0  0  0  0
    1.7334    3.0126    0.0000 C   0  0  1  0  0  0  0  0  0  0  0  0
    2.2334    2.1466    0.0000 H   0  0  0  0  0  0  0  0  0  0  0  0
    2.5995    3.5126    0.0000 C   0  0  0  0  0  0  0  0  0  0  0  0
    2.5995    4.5126    0.0000 O   0  0  0  0  0  0  0  0  0  0  0  0
    3.4655    5.0126    0.0000 C   0  0  0  0  0  0  0  0  0  0  0  0
    3.4669    6.0126    0.0000 C   0  0  0  0  0  0  0  0  0  0  0  0
    4.3308    6.5164    0.0000 C   0  0  0  0  0  0  0  0  0  0  0  0
    5.2021    6.0151    0.0000 C   0  0  0  0  0  0  0  0  0  0  0  0
    5.2094    5.0100    0.0000 C   0  0  0  0  0  0  0  0  0  0  0  0
    4.3367    4.5113    0.0000 C   0  0  0  0  0  0  0  0  0  0  0  0
    4.3352    3.5113    0.0000 C   0  0  0  0  0  0  0  0  0  0  0  0
    3.4685    3.0126    0.0000 O   0  0  0  0  0  0  0  0  0  0  0  0
    5.2005    3.0100    0.0000 C   0  0  0  0  0  0  0  0  0  0  0  0
    6.0703    3.5138    0.0000 C   0  0  0  0  0  0  0  0  0  0  0  0
    6.9356    3.0126    0.0000 C   0  0  0  0  0  0  0  0  0  0  0  0
    6.9400    2.0125    0.0000 C   0  0  0  0  0  0  0  0  0  0  0  0
    6.0702    1.5087    0.0000 C   0  0  0  0  0  0  0  0  0  0  0  0
    5.1960    2.0048    0.0000 C   0  0  0  0  0  0  0  0  0  0  0  0
    0.8674    2.5126    0.0000 C   0  0  0  0  0  0  0  0  0  0  0  0
    0.8674    1.5126    0.0000 N   0  0  0  0  0  0  0  0  0  0  0  0
    0.0000    1.0051    0.0000 C   0  0  0  0  0  0  0  0  0  0  0  0
    0.0000    0.0000    0.0000 C   0  0  0  0  0  0  0  0  0  0  0  0
    0.8674   -0.4976    0.0000 N   0  0  0  0  0  0  0  0  0  0  0  0
    1.7348    0.0000    0.0000 C   0  0  0  0  0  0  0  0  0  0  0  0
    1.7348    1.0051    0.0000 C   0  0  0  0  0  0  0  0  0  0  0  0
    0.8674   -1.4976    0.0000 C   0  0  0  0  0  0  0  0  0  0  0  0
    1.7394   -1.9976    0.0000 C   0  0  0  0  0  0  0  0  0  0  0  0
    1.7395   -2.9977    0.0000 C   0  0  0  0  0  0  0  0  0  0  0  0
    0.8763   -3.5027    0.0000 C   0  0  0  0  0  0  0  0  0  0  0  0
    0.8807   -4.5027    0.0000 F   0  0  0  0  0  0  0  0  0  0  0  0
    0.0043   -3.0027    0.0000 C   0  0  0  0  0  0  0  0  0  0  0  0
   -0.0046   -1.9976    0.0000 C   0  0  0  0  0  0  0  0  0  0  0  0
  1  2  1  0  0  0  0
  2  3  1  6  0  0  0
  2  4  1  0  0  0  0
  4  5  1  0  0  0  0
  5  6  1  0  0  0  0
  6 11  2  0  0  0  0
  6  7  1  0  0  0  0
  7  8  2  0  0  0  0
  8  9  1  0  0  0  0
  9 10  2  0  0  0  0
 10 11  1  0  0  0  0
 11 12  1  0  0  0  0
 12 13  2  0  0  0  0
 12 14  1  0  0  0  0
 14 19  2  0  0  0  0
 14 15  1  0  0  0  0
 15 16  2  0  0  0  0
 16 17  1  0  0  0  0
 17 18  2  0  0  0  0
 18 19  1  0  0  0  0
  2 20  1  0  0  0  0
 20 21  1  0  0  0  0
 21 26  1  0  0  0  0
 21 22  1  0  0  0  0
 22 23  1  0  0  0  0
 23 24  1  0  0  0  0
 24 25  1  0  0  0  0
 25 26  1  0  0  0  0
 24 27  1  0  0  0  0
 27 33  2  0  0  0  0
 27 28  1  0  0  0  0
 28 29  2  0  0  0  0
 29 30  1  0  0  0  0
 30 31  1  0  0  0  0
 30 32  2  0  0  0  0
 32 33  1  0  0  0  0
M  END
> <ID>
1591131

$$$$
1591132
  -OEChem-05171416412D

 28 30  0     1  0  0  0  0  0999 V2000
    1.7268    8.0143    0.0000 C   0  0  0  0  0  0  0  0  0  0  0  0
    1.7283    7.0143    0.0000 C   0  0  0  0  0  0  0  0  0  0  0  0
    0.8631    6.5130    0.0000 O   0  0  0  0  0  0  0  0  0  0  0  0
    2.5951    6.5156    0.0000 C   0  0  0  0  0  0  0  0  0  0  0  0
    3.4611    7.0157    0.0000 C   0  0  0  0  0  0  0  0  0  0  0  0
    4.3301    6.5207    0.0000 C   0  0  0  0  0  0  0  0  0  0  0  0
    4.3331    5.5155    0.0000 C   0  0  0  0  0  0  0  0  0  0  0  0
    3.4671    5.0053    0.0000 C   0  0  0  0  0  0  0  0  0  0  0  0
    2.5981    5.5104    0.0000 C   0  0  0  0  0  0  0  0  0  0  0  0
    1.7321    5.0104    0.0000 O   0  0  0  0  0  0  0  0  0  0  0  0
    1.7321    4.0104    0.0000 C   0  0  0  0  0  0  0  0  0  0  0  0
    0.8660    3.5104    0.0000 C   0  0  2  0  0  0  0  0  0  0  0  0
    1.3660    2.6444    0.0000 H   0  0  0  0  0  0  0  0  0  0  0  0
    0.3660    4.3764    0.0000 O   0  0  0  0  0  0  0  0  0  0  0  0
   -0.0000    3.0104    0.0000 C   0  0  0  0  0  0  0  0  0  0  0  0
   -0.0000    2.0104    0.0000 N   0  0  0  0  0  0  0  0  0  0  0  0
   -0.8675    1.5027    0.0000 C   0  0  0  0  0  0  0  0  0  0  0  0
   -0.8675    0.4975    0.0000 C   0  0  0  0  0  0  0  0  0  0  0  0
    0.0000    0.0000    0.0000 C   0  0  0  0  0  0  0  0  0  0  0  0
    0.0000   -1.0000    0.0000 C   0  0  0  0  0  0  0  0  0  0  0  0
    0.8660   -1.5000    0.0000 C   0  0  0  0  0  0  0  0  0  0  0  0
    1.7351   -0.9948    0.0000 C   0  0  0  0  0  0  0  0  0  0  0  0
    2.6011   -1.4948    0.0000 C   0  0  0  0  0  0  0  0  0  0  0  0
    2.6070   -2.4948    0.0000 C   0  0  0  0  0  0  0  0  0  0  0  0
    1.7380   -3.0000    0.0000 C   0  0  0  0  0  0  0  0  0  0  0  0
    0.8631   -2.5051    0.0000 C   0  0  0  0  0  0  0  0  0  0  0  0
    0.8675    0.4975    0.0000 C   0  0  0  0  0  0  0  0  0  0  0  0
    0.8675    1.5027    0.0000 C   0  0  0  0  0  0  0  0  0  0  0  0
  1  2  1  0  0  0  0
  2  3  2  0  0  0  0
  2  4  1  0  0  0  0
  4  9  2  0  0  0  0
  4  5  1  0  0  0  0
  5  6  2  0  0  0  0
  6  7  1  0  0  0  0
  7  8  2  0  0  0  0
  8  9  1  0  0  0  0
  9 10  1  0  0  0  0
 10 11  1  0  0  0  0
 11 12  1  0  0  0  0
 12 13  1  6  0  0  0
 12 14  1  0  0  0  0
 12 15  1  0  0  0  0
 15 16  1  0  0  0  0
 16 28  1  0  0  0  0
 16 17  1  0  0  0  0
 17 18  1  0  0  0  0
 18 19  1  0  0  0  0
 19 20  1  0  0  0  0
 20 21  1  0  0  0  0
 21 26  2  0  0  0  0
 21 22  1  0  0  0  0
 22 23  2  0  0  0  0
 23 24  1  0  0  0  0
 24 25  2  0  0  0  0
 25 26  1  0  0  0  0
 19 27  1  0  0  0  0
 27 28  1  0  0  0  0
M  END
> <ID>
1591132

$$$$
1591133
  -OEChem-05171416412D

 28 30  0     1  0  0  0  0  0999 V2000
    1.7268    8.0143    0.0000 C   0  0  0  0  0  0  0  0  0  0  0  0
    1.7283    7.0143    0.0000 C   0  0  0  0  0  0  0  0  0  0  0  0
    0.8631    6.5130    0.0000 O   0  0  0  0  0  0  0  0  0  0  0  0
    2.5951    6.5156    0.0000 C   0  0  0  0  0  0  0  0  0  0  0  0
    3.4611    7.0157    0.0000 C   0  0  0  0  0  0  0  0  0  0  0  0
    4.3301    6.5207    0.0000 C   0  0  0  0  0  0  0  0  0  0  0  0
    4.3331    5.5155    0.0000 C   0  0  0  0  0  0  0  0  0  0  0  0
    3.4671    5.0053    0.0000 C   0  0  0  0  0  0  0  0  0  0  0  0
    2.5981    5.5104    0.0000 C   0  0  0  0  0  0  0  0  0  0  0  0
    1.7321    5.0104    0.0000 O   0  0  0  0  0  0  0  0  0  0  0  0
    1.7321    4.0104    0.0000 C   0  0  0  0  0  0  0  0  0  0  0  0
    0.8660    3.5104    0.0000 C   0  0  2  0  0  0  0  0  0  0  0  0
    1.3660    2.6444    0.0000 H   0  0  0  0  0  0  0  0  0  0  0  0
    0.3660    4.3764    0.0000 O   0  0  0  0  0  0  0  0  0  0  0  0
   -0.0000    3.0104    0.0000 C   0  0  0  0  0  0  0  0  0  0  0  0
   -0.0000    2.0104    0.0000 N   0  0  0  0  0  0  0  0  0  0  0  0
   -0.8675    1.5027    0.0000 C   0  0  0  0  0  0  0  0  0  0  0  0
   -0.8675    0.4975    0.0000 C   0  0  0  0  0  0  0  0  0  0  0  0
    0.0000    0.0000    0.0000 C   0  0  0  0  0  0  0  0  0  0  0  0
    0.6420   -0.7667    0.0000 O   0  0  0  0  0  0  0  0  0  0  0  0
    0.8675    0.4975    0.0000 C   0  0  0  0  0  0  0  0  0  0  0  0
    0.8675    1.5027    0.0000 C   0  0  0  0  0  0  0  0  0  0  0  0
   -0.6420   -0.7667    0.0000 C   0  0  0  0  0  0  0  0  0  0  0  0
   -0.2946   -1.7099    0.0000 C   0  0  0  0  0  0  0  0  0  0  0  0
   -0.9366   -2.4766    0.0000 C   0  0  0  0  0  0  0  0  0  0  0  0
   -1.9226   -2.3097    0.0000 C   0  0  0  0  0  0  0  0  0  0  0  0
   -2.2701   -1.3665    0.0000 C   0  0  0  0  0  0  0  0  0  0  0  0
   -1.6316   -0.5902    0.0000 C   0  0  0  0  0  0  0  0  0  0  0  0
  1  2  1  0  0  0  0
  2  3  2  0  0  0  0
  2  4  1  0  0  0  0
  4  9  2  0  0  0  0
  4  5  1  0  0  0  0
  5  6  2  0  0  0  0
  6  7  1  0  0  0  0
  7  8  2  0  0  0  0
  8  9  1  0  0  0  0
  9 10  1  0  0  0  0
 10 11  1  0  0  0  0
 11 12  1  0  0  0  0
 12 13  1  6  0  0  0
 12 14  1  0  0  0  0
 12 15  1  0  0  0  0
 15 16  1  0  0  0  0
 16 22  1  0  0  0  0
 16 17  1  0  0  0  0
 17 18  1  0  0  0  0
 18 19  1  0  0  0  0
 19 20  1  0  0  0  0
 19 21  1  0  0  0  0
 21 22  1  0  0  0  0
 19 23  1  0  0  0  0
 23 28  2  0  0  0  0
 23 24  1  0  0  0  0
 24 25  2  0  0  0  0
 25 26  1  0  0  0  0
 26 27  2  0  0  0  0
 27 28  1  0  0  0  0
M  END
> <ID>
1591133

$$$$
1591134
  -OEChem-05171416412D

 36 39  0     1  0  0  0  0  0999 V2000
   -0.8699    2.5113    0.0000 C   0  0  0  0  0  0  0  0  0  0  0  0
   -0.0046    3.0126    0.0000 C   0  0  0  0  0  0  0  0  0  0  0  0
   -0.0047    4.0127    0.0000 C   0  0  0  0  0  0  0  0  0  0  0  0
    0.8585    4.5177    0.0000 C   0  0  0  0  0  0  0  0  0  0  0  0
    1.7305    4.0177    0.0000 C   0  0  0  0  0  0  0  0  0  0  0  0
    1.7394    3.0126    0.0000 C   0  0  0  0  0  0  0  0  0  0  0  0
    0.8674    2.5126    0.0000 C   0  0  0  0  0  0  0  0  0  0  0  0
    0.8674    1.5126    0.0000 N   0  0  0  0  0  0  0  0  0  0  0  0
    0.0000    1.0051    0.0000 C   0  0  0  0  0  0  0  0  0  0  0  0
    0.0000    0.0000    0.0000 C   0  0  0  0  0  0  0  0  0  0  0  0
    0.8674   -0.4976    0.0000 N   0  0  0  0  0  0  0  0  0  0  0  0
    0.8674   -1.4976    0.0000 C   0  0  0  0  0  0  0  0  0  0  0  0
    1.7334   -1.9976    0.0000 C   0  0  1  0  0  0  0  0  0  0  0  0
    2.2334   -1.1316    0.0000 H   0  0  0  0  0  0  0  0  0  0  0  0
    1.2334   -2.8636    0.0000 O   0  0  0  0  0  0  0  0  0  0  0  0
    2.5995   -2.4976    0.0000 C   0  0  0  0  0  0  0  0  0  0  0  0
    3.4655   -1.9976    0.0000 O   0  0  0  0  0  0  0  0  0  0  0  0
    4.3315   -2.4976    0.0000 C   0  0  0  0  0  0  0  0  0  0  0  0
    5.1983   -1.9988    0.0000 C   0  0  0  0  0  0  0  0  0  0  0  0
    6.0665   -2.4951    0.0000 C   0  0  0  0  0  0  0  0  0  0  0  0
    6.0680   -3.5003    0.0000 C   0  0  0  0  0  0  0  0  0  0  0  0
    5.2012   -4.0092    0.0000 C   0  0  0  0  0  0  0  0  0  0  0  0
    4.3330   -3.5028    0.0000 C   0  0  0  0  0  0  0  0  0  0  0  0
    3.4662   -4.0015    0.0000 C   0  0  0  0  0  0  0  0  0  0  0  0
    2.6009   -3.5002    0.0000 O   0  0  0  0  0  0  0  0  0  0  0  0
    3.4647   -5.0015    0.0000 C   0  0  0  0  0  0  0  0  0  0  0  0
    2.5979   -5.5002    0.0000 C   0  0  0  0  0  0  0  0  0  0  0  0
    2.5964   -6.5002    0.0000 C   0  0  0  0  0  0  0  0  0  0  0  0
    3.4677   -7.0015    0.0000 C   0  0  0  0  0  0  0  0  0  0  0  0
    3.4662   -8.0016    0.0000 C   0  0  0  0  0  0  0  0  0  0  0  0
    2.6023   -8.5053    0.0000 C   0  0  0  0  0  0  0  0  0  0  0  0
    2.6053   -9.5053    0.0000 Cl  0  0  0  0  0  0  0  0  0  0  0  0
    1.7311   -8.0040    0.0000 C   0  0  0  0  0  0  0  0  0  0  0  0
    1.7237   -6.9989    0.0000 C   0  0  0  0  0  0  0  0  0  0  0  0
    1.7348    0.0000    0.0000 C   0  0  0  0  0  0  0  0  0  0  0  0
    1.7348    1.0051    0.0000 C   0  0  0  0  0  0  0  0  0  0  0  0
  1  2  1  0  0  0  0
  2  7  2  0  0  0  0
  2  3  1  0  0  0  0
  3  4  2  0  0  0  0
  4  5  1  0  0  0  0
  5  6  2  0  0  0  0
  6  7  1  0  0  0  0
  7  8  1  0  0  0  0
  8 36  1  0  0  0  0
  8  9  1  0  0  0  0
  9 10  1  0  0  0  0
 10 11  1  0  0  0  0
 11 12  1  0  0  0  0
 12 13  1  0  0  0  0
 13 14  1  1  0  0  0
 13 15  1  0  0  0  0
 13 16  1  0  0  0  0
 16 17  1  0  0  0  0
 17 18  1  0  0  0  0
 18 23  2  0  0  0  0
 18 19  1  0  0  0  0
 19 20  2  0  0  0  0
 20 21  1  0  0  0  0
 21 22  2  0  0  0  0
 22 23  1  0  0  0  0
 23 24  1  0  0  0  0
 24 25  2  0  0  0  0
 24 26  1  0  0  0  0
 26 27  1  0  0  0  0
 27 28  1  0  0  0  0
 28 34  2  0  0  0  0
 28 29  1  0  0  0  0
 29 30  2  0  0  0  0
 30 31  1  0  0  0  0
 31 32  1  0  0  0  0
 31 33  2  0  0  0  0
 33 34  1  0  0  0  0
 11 35  1  0  0  0  0
 35 36  1  0  0  0  0
M  END
> <ID>
1591134

$$$$
1591135
  -OEChem-05171416412D

 36 39  0     1  0  0  0  0  0999 V2000
    1.7257   12.0203    0.0000 C   0  0  0  0  0  0  0  0  0  0  0  0
    1.7228   11.0203    0.0000 C   0  0  0  0  0  0  0  0  0  0  0  0
    2.5934   10.5178    0.0000 C   0  0  0  0  0  0  0  0  0  0  0  0
    2.5905    9.5178    0.0000 C   0  0  0  0  0  0  0  0  0  0  0  0
    1.7260    9.0152    0.0000 C   0  0  0  0  0  0  0  0  0  0  0  0
    1.7275    8.0152    0.0000 C   0  0  0  0  0  0  0  0  0  0  0  0
    2.5942    7.5165    0.0000 C   0  0  0  0  0  0  0  0  0  0  0  0
    2.5957    6.5165    0.0000 C   0  0  0  0  0  0  0  0  0  0  0  0
    1.7305    6.0152    0.0000 O   0  0  0  0  0  0  0  0  0  0  0  0
    3.4625    6.0178    0.0000 C   0  0  0  0  0  0  0  0  0  0  0  0
    4.3285    6.5179    0.0000 C   0  0  0  0  0  0  0  0  0  0  0  0
    5.1975    6.0229    0.0000 C   0  0  0  0  0  0  0  0  0  0  0  0
    5.2005    5.0177    0.0000 C   0  0  0  0  0  0  0  0  0  0  0  0
    4.3345    4.5075    0.0000 C   0  0  0  0  0  0  0  0  0  0  0  0
    3.4655    5.0126    0.0000 C   0  0  0  0  0  0  0  0  0  0  0  0
    2.5995    4.5126    0.0000 O   0  0  0  0  0  0  0  0  0  0  0  0
    2.5995    3.5126    0.0000 C   0  0  0  0  0  0  0  0  0  0  0  0
    1.7334    3.0126    0.0000 C   0  0  2  0  0  0  0  0  0  0  0  0
    2.2334    2.1466    0.0000 H   0  0  0  0  0  0  0  0  0  0  0  0
    1.2334    3.8786    0.0000 O   0  0  0  0  0  0  0  0  0  0  0  0
    0.8674    2.5126    0.0000 C   0  0  0  0  0  0  0  0  0  0  0  0
    0.8674    1.5126    0.0000 N   0  0  0  0  0  0  0  0  0  0  0  0
    0.0000    1.0051    0.0000 C   0  0  0  0  0  0  0  0  0  0  0  0
    0.0000    0.0000    0.0000 C   0  0  0  0  0  0  0  0  0  0  0  0
    0.8674   -0.4976    0.0000 N   0  0  0  0  0  0  0  0  0  0  0  0
    1.7348    0.0000    0.0000 C   0  0  0  0  0  0  0  0  0  0  0  0
    1.7348    1.0051    0.0000 C   0  0  0  0  0  0  0  0  0  0  0  0
    0.8674   -1.4976    0.0000 C   0  0  0  0  0  0  0  0  0  0  0  0
    1.7327   -1.9989    0.0000 C   0  0  0  0  0  0  0  0  0  0  0  0
    1.7371   -2.9989    0.0000 C   0  0  0  0  0  0  0  0  0  0  0  0
    0.8673   -3.5028    0.0000 C   0  0  0  0  0  0  0  0  0  0  0  0
   -0.0069   -3.0066    0.0000 C   0  0  0  0  0  0  0  0  0  0  0  0
   -0.0024   -2.0015    0.0000 C   0  0  0  0  0  0  0  0  0  0  0  0
   -0.8677   -1.5002    0.0000 C   0  0  0  0  0  0  0  0  0  0  0  0
    0.8554    9.5178    0.0000 C   0  0  0  0  0  0  0  0  0  0  0  0
    0.8494   10.5229    0.0000 C   0  0  0  0  0  0  0  0  0  0  0  0
  1  2  1  0  0  0  0
  2 36  2  0  0  0  0
  2  3  1  0  0  0  0
  3  4  2  0  0  0  0
  4  5  1  0  0  0  0
  5  6  1  0  0  0  0
  6  7  1  0  0  0  0
  7  8  1  0  0  0  0
  8  9  2  0  0  0  0
  8 10  1  0  0  0  0
 10 15  2  0  0  0  0
 10 11  1  0  0  0  0
 11 12  2  0  0  0  0
 12 13  1  0  0  0  0
 13 14  2  0  0  0  0
 14 15  1  0  0  0  0
 15 16  1  0  0  0  0
 16 17  1  0  0  0  0
 17 18  1  0  0  0  0
 18 19  1  6  0  0  0
 18 20  1  0  0  0  0
 18 21  1  0  0  0  0
 21 22  1  0  0  0  0
 22 27  1  0  0  0  0
 22 23  1  0  0  0  0
 23 24  1  0  0  0  0
 24 25  1  0  0  0  0
 25 26  1  0  0  0  0
 26 27  1  0  0  0  0
 25 28  1  0  0  0  0
 28 33  2  0  0  0  0
 28 29  1  0  0  0  0
 29 30  2  0  0  0  0
 30 31  1  0  0  0  0
 31 32  2  0  0  0  0
 32 33  1  0  0  0  0
 33 34  1  0  0  0  0
  5 35  2  0  0  0  0
 35 36  1  0  0  0  0
M  END
> <ID>
1591135

$$$$
1591136
  -OEChem-05171416412D

 37 40  0     1  0  0  0  0  0999 V2000
    2.5932   12.5178    0.0000 C   0  0  0  0  0  0  0  0  0  0  0  0
    1.7257   12.0203    0.0000 O   0  0  0  0  0  0  0  0  0  0  0  0
    1.7228   11.0203    0.0000 C   0  0  0  0  0  0  0  0  0  0  0  0
    2.5934   10.5178    0.0000 C   0  0  0  0  0  0  0  0  0  0  0  0
    2.5905    9.5178    0.0000 C   0  0  0  0  0  0  0  0  0  0  0  0
    1.7260    9.0152    0.0000 C   0  0  0  0  0  0  0  0  0  0  0  0
    1.7275    8.0152    0.0000 C   0  0  0  0  0  0  0  0  0  0  0  0
    2.5942    7.5165    0.0000 C   0  0  0  0  0  0  0  0  0  0  0  0
    2.5957    6.5165    0.0000 C   0  0  0  0  0  0  0  0  0  0  0  0
    1.7305    6.0152    0.0000 O   0  0  0  0  0  0  0  0  0  0  0  0
    3.4625    6.0178    0.0000 C   0  0  0  0  0  0  0  0  0  0  0  0
    4.3285    6.5179    0.0000 C   0  0  0  0  0  0  0  0  0  0  0  0
    5.1975    6.0229    0.0000 C   0  0  0  0  0  0  0  0  0  0  0  0
    5.2005    5.0177    0.0000 C   0  0  0  0  0  0  0  0  0  0  0  0
    4.3345    4.5075    0.0000 C   0  0  0  0  0  0  0  0  0  0  0  0
    3.4655    5.0126    0.0000 C   0  0  0  0  0  0  0  0  0  0  0  0
    2.5995    4.5126    0.0000 O   0  0  0  0  0  0  0  0  0  0  0  0
    2.5995    3.5126    0.0000 C   0  0  0  0  0  0  0  0  0  0  0  0
    1.7334    3.0126    0.0000 C   0  0  2  0  0  0  0  0  0  0  0  0
    2.2334    2.1466    0.0000 H   0  0  0  0  0  0  0  0  0  0  0  0
    1.2334    3.8786    0.0000 O   0  0  0  0  0  0  0  0  0  0  0  0
    0.8674    2.5126    0.0000 C   0  0  0  0  0  0  0  0  0  0  0  0
    0.8674    1.5126    0.0000 N   0  0  0  0  0  0  0  0  0  0  0  0
    0.0000    1.0051    0.0000 C   0  0  0  0  0  0  0  0  0  0  0  0
    0.0000    0.0000    0.0000 C   0  0  0  0  0  0  0  0  0  0  0  0
    0.8674   -0.4976    0.0000 N   0  0  0  0  0  0  0  0  0  0  0  0
    1.7348    0.0000    0.0000 C   0  0  0  0  0  0  0  0  0  0  0  0
    1.7348    1.0051    0.0000 C   0  0  0  0  0  0  0  0  0  0  0  0
    0.8674   -1.4976    0.0000 C   0  0  0  0  0  0  0  0  0  0  0  0
    1.7327   -1.9989    0.0000 C   0  0  0  0  0  0  0  0  0  0  0  0
    1.7371   -2.9989    0.0000 C   0  0  0  0  0  0  0  0  0  0  0  0
    0.8673   -3.5028    0.0000 C   0  0  0  0  0  0  0  0  0  0  0  0
   -0.0069   -3.0066    0.0000 C   0  0  0  0  0  0  0  0  0  0  0  0
   -0.0024   -2.0015    0.0000 C   0  0  0  0  0  0  0  0  0  0  0  0
   -0.8677   -1.5002    0.0000 C   0  0  0  0  0  0  0  0  0  0  0  0
    0.8554    9.5178    0.0000 C   0  0  0  0  0  0  0  0  0  0  0  0
    0.8494   10.5229    0.0000 C   0  0  0  0  0  0  0  0  0  0  0  0
  1  2  1  0  0  0  0
  2  3  1  0  0  0  0
  3 37  2  0  0  0  0
  3  4  1  0  0  0  0
  4  5  2  0  0  0  0
  5  6  1  0  0  0  0
  6  7  1  0  0  0  0
  7  8  1  0  0  0  0
  8  9  1  0  0  0  0
  9 10  2  0  0  0  0
  9 11  1  0  0  0  0
 11 16  2  0  0  0  0
 11 12  1  0  0  0  0
 12 13  2  0  0  0  0
 13 14  1  0  0  0  0
 14 15  2  0  0  0  0
 15 16  1  0  0  0  0
 16 17  1  0  0  0  0
 17 18  1  0  0  0  0
 18 19  1  0  0  0  0
 19 20  1  6  0  0  0
 19 21  1  0  0  0  0
 19 22  1  0  0  0  0
 22 23  1  0  0  0  0
 23 28  1  0  0  0  0
 23 24  1  0  0  0  0
 24 25  1  0  0  0  0
 25 26  1  0  0  0  0
 26 27  1  0  0  0  0
 27 28  1  0  0  0  0
 26 29  1  0  0  0  0
 29 34  2  0  0  0  0
 29 30  1  0  0  0  0
 30 31  2  0  0  0  0
 31 32  1  0  0  0  0
 32 33  2  0  0  0  0
 33 34  1  0  0  0  0
 34 35  1  0  0  0  0
  6 36  2  0  0  0  0
 36 37  1  0  0  0  0
M  END
> <ID>
1591136

$$$$
1591137
  -OEChem-05171416412D

 37 40  0     1  0  0  0  0  0999 V2000
   -0.8699    2.5113    0.0000 C   0  0  0  0  0  0  0  0  0  0  0  0
   -0.0046    3.0126    0.0000 C   0  0  0  0  0  0  0  0  0  0  0  0
   -0.0047    4.0127    0.0000 C   0  0  0  0  0  0  0  0  0  0  0  0
    0.8585    4.5177    0.0000 C   0  0  0  0  0  0  0  0  0  0  0  0
    1.7305    4.0177    0.0000 C   0  0  0  0  0  0  0  0  0  0  0  0
    1.7394    3.0126    0.0000 C   0  0  0  0  0  0  0  0  0  0  0  0
    0.8674    2.5126    0.0000 C   0  0  0  0  0  0  0  0  0  0  0  0
    0.8674    1.5126    0.0000 N   0  0  0  0  0  0  0  0  0  0  0  0
    0.0000    1.0051    0.0000 C   0  0  0  0  0  0  0  0  0  0  0  0
    0.0000    0.0000    0.0000 C   0  0  0  0  0  0  0  0  0  0  0  0
    0.8674   -0.4976    0.0000 N   0  0  0  0  0  0  0  0  0  0  0  0
    0.8674   -1.4976    0.0000 C   0  0  0  0  0  0  0  0  0  0  0  0
    1.7334   -1.9976    0.0000 C   0  0  1  0  0  0  0  0  0  0  0  0
    2.2334   -1.1316    0.0000 H   0  0  0  0  0  0  0  0  0  0  0  0
    1.2334   -2.8636    0.0000 O   0  0  0  0  0  0  0  0  0  0  0  0
    2.5995   -2.4976    0.0000 C   0  0  0  0  0  0  0  0  0  0  0  0
    3.4655   -1.9976    0.0000 O   0  0  0  0  0  0  0  0  0  0  0  0
    4.3315   -2.4976    0.0000 C   0  0  0  0  0  0  0  0  0  0  0  0
    5.1983   -1.9988    0.0000 C   0  0  0  0  0  0  0  0  0  0  0  0
    6.0665   -2.4951    0.0000 C   0  0  0  0  0  0  0  0  0  0  0  0
    6.0680   -3.5003    0.0000 C   0  0  0  0  0  0  0  0  0  0  0  0
    5.2012   -4.0092    0.0000 C   0  0  0  0  0  0  0  0  0  0  0  0
    4.3330   -3.5028    0.0000 C   0  0  0  0  0  0  0  0  0  0  0  0
    3.4662   -4.0015    0.0000 C   0  0  0  0  0  0  0  0  0  0  0  0
    2.6009   -3.5002    0.0000 O   0  0  0  0  0  0  0  0  0  0  0  0
    3.4647   -5.0015    0.0000 C   0  0  0  0  0  0  0  0  0  0  0  0
    2.5979   -5.5002    0.0000 C   0  0  0  0  0  0  0  0  0  0  0  0
    2.5964   -6.5002    0.0000 C   0  0  0  0  0  0  0  0  0  0  0  0
    1.7237   -6.9989    0.0000 C   0  0  0  0  0  0  0  0  0  0  0  0
    1.7221   -7.9989    0.0000 C   0  0  0  0  0  0  0  0  0  0  0  0
    2.5845   -8.5053    0.0000 C   0  0  0  0  0  0  0  0  0  0  0  0
    2.5786   -9.5053    0.0000 Cl  0  0  0  0  0  0  0  0  0  0  0  0
    3.4572   -8.0066    0.0000 C   0  0  0  0  0  0  0  0  0  0  0  0
    4.3195   -8.5130    0.0000 Cl  0  0  0  0  0  0  0  0  0  0  0  0
    3.4676   -7.0015    0.0000 C   0  0  0  0  0  0  0  0  0  0  0  0
    1.7348    0.0000    0.0000 C   0  0  0  0  0  0  0  0  0  0  0  0
    1.7348    1.0051    0.0000 C   0  0  0  0  0  0  0  0  0  0  0  0
  1  2  1  0  0  0  0
  2  7  2  0  0  0  0
  2  3  1  0  0  0  0
  3  4  2  0  0  0  0
  4  5  1  0  0  0  0
  5  6  2  0  0  0  0
  6  7  1  0  0  0  0
  7  8  1  0  0  0  0
  8 37  1  0  0  0  0
  8  9  1  0  0  0  0
  9 10  1  0  0  0  0
 10 11  1  0  0  0  0
 11 12  1  0  0  0  0
 12 13  1  0  0  0  0
 13 14  1  1  0  0  0
 13 15  1  0  0  0  0
 13 16  1  0  0  0  0
 16 17  1  0  0  0  0
 17 18  1  0  0  0  0
 18 23  2  0  0  0  0
 18 19  1  0  0  0  0
 19 20  2  0  0  0  0
 20 21  1  0  0  0  0
 21 22  2  0  0  0  0
 22 23  1  0  0  0  0
 23 24  1  0  0  0  0
 24 25  2  0  0  0  0
 24 26  1  0  0  0  0
 26 27  1  0  0  0  0
 27 28  1  0  0  0  0
 28 35  2  0  0  0  0
 28 29  1  0  0  0  0
 29 30  2  0  0  0  0
 30 31  1  0  0  0  0
 31 32  1  0  0  0  0
 31 33  2  0  0  0  0
 33 34  1  0  0  0  0
 33 35  1  0  0  0  0
 11 36  1  0  0  0  0
 36 37  1  0  0  0  0
M  END
> <ID>
1591137

$$$$
1591138
  -OEChem-05171416412D

 31 33  0     1  0  0  0  0  0999 V2000
   -1.1340    5.2425    0.0000 C   0  0  0  0  0  0  0  0  0  0  0  0
   -0.6340    4.3764    0.0000 C   0  0  0  0  0  0  0  0  0  0  0  0
   -1.1340    3.5104    0.0000 O   0  0  0  0  0  0  0  0  0  0  0  0
    0.3660    4.3764    0.0000 O   0  0  0  0  0  0  0  0  0  0  0  0
    0.8660    3.5104    0.0000 C   0  0  1  0  0  0  0  0  0  0  0  0
    1.3660    2.6444    0.0000 H   0  0  0  0  0  0  0  0  0  0  0  0
    1.7321    4.0104    0.0000 C   0  0  0  0  0  0  0  0  0  0  0  0
    1.7321    5.0104    0.0000 O   0  0  0  0  0  0  0  0  0  0  0  0
    2.5981    5.5104    0.0000 C   0  0  0  0  0  0  0  0  0  0  0  0
    2.5995    6.5104    0.0000 C   0  0  0  0  0  0  0  0  0  0  0  0
    3.4634    7.0142    0.0000 C   0  0  0  0  0  0  0  0  0  0  0  0
    4.3347    6.5129    0.0000 C   0  0  0  0  0  0  0  0  0  0  0  0
    4.3420    5.5078    0.0000 C   0  0  0  0  0  0  0  0  0  0  0  0
    3.4693    5.0091    0.0000 C   0  0  0  0  0  0  0  0  0  0  0  0
    3.4678    4.0091    0.0000 C   0  0  0  0  0  0  0  0  0  0  0  0
    2.6011    3.5104    0.0000 O   0  0  0  0  0  0  0  0  0  0  0  0
    4.3331    3.5078    0.0000 C   0  0  0  0  0  0  0  0  0  0  0  0
    4.3316    2.5078    0.0000 C   0  0  0  0  0  0  0  0  0  0  0  0
    5.1969    2.0065    0.0000 C   0  0  0  0  0  0  0  0  0  0  0  0
    6.0667    2.5103    0.0000 C   0  0  0  0  0  0  0  0  0  0  0  0
    6.9320    2.0091    0.0000 C   0  0  0  0  0  0  0  0  0  0  0  0
    6.9364    1.0090    0.0000 C   0  0  0  0  0  0  0  0  0  0  0  0
    6.0666    0.5052    0.0000 C   0  0  0  0  0  0  0  0  0  0  0  0
    5.1924    1.0013    0.0000 C   0  0  0  0  0  0  0  0  0  0  0  0
   -0.0000    3.0104    0.0000 C   0  0  0  0  0  0  0  0  0  0  0  0
   -0.0000    2.0104    0.0000 N   0  0  0  0  0  0  0  0  0  0  0  0
   -0.8675    1.5027    0.0000 C   0  0  0  0  0  0  0  0  0  0  0  0
   -0.8675    0.4975    0.0000 C   0  0  0  0  0  0  0  0  0  0  0  0
    0.0000    0.0000    0.0000 C   0  0  0  0  0  0  0  0  0  0  0  0
    0.8675    0.4975    0.0000 C   0  0  0  0  0  0  0  0  0  0  0  0
    0.8675    1.5027    0.0000 C   0  0  0  0  0  0  0  0  0  0  0  0
  1  2  1  0  0  0  0
  2  3  2  0  0  0  0
  2  4  1  0  0  0  0
  4  5  1  0  0  0  0
  5  6  1  6  0  0  0
  5  7  1  0  0  0  0
  7  8  1  0  0  0  0
  8  9  1  0  0  0  0
  9 14  2  0  0  0  0
  9 10  1  0  0  0  0
 10 11  2  0  0  0  0
 11 12  1  0  0  0  0
 12 13  2  0  0  0  0
 13 14  1  0  0  0  0
 14 15  1  0  0  0  0
 15 16  2  0  0  0  0
 15 17  1  0  0  0  0
 17 18  1  0  0  0  0
 18 19  1  0  0  0  0
 19 24  2  0  0  0  0
 19 20  1  0  0  0  0
 20 21  2  0  0  0  0
 21 22  1  0  0  0  0
 22 23  2  0  0  0  0
 23 24  1  0  0  0  0
  5 25  1  0  0  0  0
 25 26  1  0  0  0  0
 26 31  1  0  0  0  0
 26 27  1  0  0  0  0
 27 28  1  0  0  0  0
 28 29  1  0  0  0  0
 29 30  1  0  0  0  0
 30 31  1  0  0  0  0
M  END
> <ID>
1591138

$$$$
1591139
  -OEChem-05171416412D

 33 35  0     1  0  0  0  0  0999 V2000
    2.6054    3.4976    0.0000 C   0  0  0  0  0  0  0  0  0  0  0  0
    1.7379    3.0001    0.0000 O   0  0  0  0  0  0  0  0  0  0  0  0
    1.7350    2.0001    0.0000 C   0  0  0  0  0  0  0  0  0  0  0  0
    2.5995    1.4976    0.0000 O   0  0  0  0  0  0  0  0  0  0  0  0
    0.8675    1.5027    0.0000 C   0  0  0  0  0  0  0  0  0  0  0  0
    0.8675    0.4975    0.0000 C   0  0  0  0  0  0  0  0  0  0  0  0
    0.0000    0.0000    0.0000 C   0  0  0  0  0  0  0  0  0  0  0  0
   -0.8675    0.4975    0.0000 C   0  0  0  0  0  0  0  0  0  0  0  0
   -1.7328   -0.0038    0.0000 N   0  0  0  0  0  0  0  0  0  0  0  0
   -1.7313   -1.0038    0.0000 C   0  0  0  0  0  0  0  0  0  0  0  0
   -2.5966   -1.5050    0.0000 C   0  0  1  0  0  0  0  0  0  0  0  0
   -2.0954   -2.3703    0.0000 H   0  0  0  0  0  0  0  0  0  0  0  0
   -3.0979   -0.6397    0.0000 O   0  0  0  0  0  0  0  0  0  0  0  0
   -3.4619   -2.0063    0.0000 C   0  0  0  0  0  0  0  0  0  0  0  0
   -3.4605   -3.0063    0.0000 O   0  0  0  0  0  0  0  0  0  0  0  0
   -4.3258   -3.5075    0.0000 C   0  0  0  0  0  0  0  0  0  0  0  0
   -4.3258   -4.5076    0.0000 C   0  0  0  0  0  0  0  0  0  0  0  0
   -5.1889   -5.0126    0.0000 C   0  0  0  0  0  0  0  0  0  0  0  0
   -6.0609   -4.5125    0.0000 C   0  0  0  0  0  0  0  0  0  0  0  0
   -6.0698   -3.5074    0.0000 C   0  0  0  0  0  0  0  0  0  0  0  0
   -5.1978   -3.0074    0.0000 C   0  0  0  0  0  0  0  0  0  0  0  0
   -5.1977   -2.0074    0.0000 C   0  0  0  0  0  0  0  0  0  0  0  0
   -4.3317   -1.5075    0.0000 O   0  0  0  0  0  0  0  0  0  0  0  0
   -6.0637   -1.5074    0.0000 C   0  0  0  0  0  0  0  0  0  0  0  0
   -6.0637   -0.5074    0.0000 C   0  0  0  0  0  0  0  0  0  0  0  0
   -6.9297   -0.0074    0.0000 C   0  0  0  0  0  0  0  0  0  0  0  0
   -7.7988   -0.5125    0.0000 C   0  0  0  0  0  0  0  0  0  0  0  0
   -8.6648   -0.0125    0.0000 C   0  0  0  0  0  0  0  0  0  0  0  0
   -8.6706    0.9875    0.0000 C   0  0  0  0  0  0  0  0  0  0  0  0
   -7.8015    1.4927    0.0000 C   0  0  0  0  0  0  0  0  0  0  0  0
   -6.9267    0.9978    0.0000 C   0  0  0  0  0  0  0  0  0  0  0  0
   -0.8675    1.5027    0.0000 C   0  0  0  0  0  0  0  0  0  0  0  0
    0.0000    2.0104    0.0000 C   0  0  0  0  0  0  0  0  0  0  0  0
  1  2  1  0  0  0  0
  2  3  1  0  0  0  0
  3  4  2  0  0  0  0
  3  5  1  0  0  0  0
  5 33  2  0  0  0  0
  5  6  1  0  0  0  0
  6  7  2  0  0  0  0
  7  8  1  0  0  0  0
  8  9  1  0  0  0  0
  9 10  1  0  0  0  0
 10 11  1  0  0  0  0
 11 12  1  1  0  0  0
 11 13  1  0  0  0  0
 11 14  1  0  0  0  0
 14 15  1  0  0  0  0
 15 16  1  0  0  0  0
 16 21  2  0  0  0  0
 16 17  1  0  0  0  0
 17 18  2  0  0  0  0
 18 19  1  0  0  0  0
 19 20  2  0  0  0  0
 20 21  1  0  0  0  0
 21 22  1  0  0  0  0
 22 23  2  0  0  0  0
 22 24  1  0  0  0  0
 24 25  1  0  0  0  0
 25 26  1  0  0  0  0
 26 31  2  0  0  0  0
 26 27  1  0  0  0  0
 27 28  2  0  0  0  0
 28 29  1  0  0  0  0
 29 30  2  0  0  0  0
 30 31  1  0  0  0  0
  8 32  2  0  0  0  0
 32 33  1  0  0  0  0
M  END
> <ID>
1591139

$$$$
1591140
  -OEChem-05171416412D

 36 39  0     1  0  0  0  0  0999 V2000
   -0.8699    2.5113    0.0000 C   0  0  0  0  0  0  0  0  0  0  0  0
   -0.0046    3.0126    0.0000 C   0  0  0  0  0  0  0  0  0  0  0  0
   -0.0047    4.0127    0.0000 C   0  0  0  0  0  0  0  0  0  0  0  0
    0.8585    4.5177    0.0000 C   0  0  0  0  0  0  0  0  0  0  0  0
    1.7305    4.0177    0.0000 C   0  0  0  0  0  0  0  0  0  0  0  0
    1.7394    3.0126    0.0000 C   0  0  0  0  0  0  0  0  0  0  0  0
    0.8674    2.5126    0.0000 C   0  0  0  0  0  0  0  0  0  0  0  0
    0.8674    1.5126    0.0000 N   0  0  0  0  0  0  0  0  0  0  0  0
    0.0000    1.0051    0.0000 C   0  0  0  0  0  0  0  0  0  0  0  0
    0.0000    0.0000    0.0000 C   0  0  0  0  0  0  0  0  0  0  0  0
    0.8674   -0.4976    0.0000 N   0  0  0  0  0  0  0  0  0  0  0  0
    0.8674   -1.4976    0.0000 C   0  0  0  0  0  0  0  0  0  0  0  0
    1.7334   -1.9976    0.0000 C   0  0  1  0  0  0  0  0  0  0  0  0
    1.2334   -2.8636    0.0000 H   0  0  0  0  0  0  0  0  0  0  0  0
    2.2334   -1.1316    0.0000 O   0  0  0  0  0  0  0  0  0  0  0  0
    2.5995   -2.4976    0.0000 C   0  0  0  0  0  0  0  0  0  0  0  0
    2.5995   -3.4976    0.0000 O   0  0  0  0  0  0  0  0  0  0  0  0
    3.4655   -3.9976    0.0000 C   0  0  0  0  0  0  0  0  0  0  0  0
    4.3323   -3.4988    0.0000 C   0  0  0  0  0  0  0  0  0  0  0  0
    5.2005   -3.9951    0.0000 C   0  0  0  0  0  0  0  0  0  0  0  0
    5.2019   -5.0003    0.0000 C   0  0  0  0  0  0  0  0  0  0  0  0
    6.0702   -5.4965    0.0000 Cl  0  0  0  0  0  0  0  0  0  0  0  0
    4.3352   -5.5092    0.0000 C   0  0  0  0  0  0  0  0  0  0  0  0
    3.4669   -5.0028    0.0000 C   0  0  0  0  0  0  0  0  0  0  0  0
    2.6002   -5.5015    0.0000 C   0  0  0  0  0  0  0  0  0  0  0  0
    2.5987   -6.5015    0.0000 O   0  0  0  0  0  0  0  0  0  0  0  0
    1.7349   -5.0002    0.0000 C   0  0  0  0  0  0  0  0  0  0  0  0
    0.8681   -5.4989    0.0000 C   0  0  0  0  0  0  0  0  0  0  0  0
    0.0028   -4.9976    0.0000 C   0  0  0  0  0  0  0  0  0  0  0  0
    0.0073   -3.9924    0.0000 C   0  0  0  0  0  0  0  0  0  0  0  0
   -0.8580   -3.4911    0.0000 C   0  0  0  0  0  0  0  0  0  0  0  0
   -1.7277   -3.9847    0.0000 C   0  0  0  0  0  0  0  0  0  0  0  0
   -1.7321   -4.9899    0.0000 C   0  0  0  0  0  0  0  0  0  0  0  0
   -0.8669   -5.5014    0.0000 C   0  0  0  0  0  0  0  0  0  0  0  0
    1.7348    0.0000    0.0000 C   0  0  0  0  0  0  0  0  0  0  0  0
    1.7348    1.0051    0.0000 C   0  0  0  0  0  0  0  0  0  0  0  0
  1  2  1  0  0  0  0
  2  7  2  0  0  0  0
  2  3  1  0  0  0  0
  3  4  2  0  0  0  0
  4  5  1  0  0  0  0
  5  6  2  0  0  0  0
  6  7  1  0  0  0  0
  7  8  1  0  0  0  0
  8 36  1  0  0  0  0
  8  9  1  0  0  0  0
  9 10  1  0  0  0  0
 10 11  1  0  0  0  0
 11 12  1  0  0  0  0
 12 13  1  0  0  0  0
 13 14  1  6  0  0  0
 13 15  1  0  0  0  0
 13 16  1  0  0  0  0
 16 17  1  0  0  0  0
 17 18  1  0  0  0  0
 18 24  2  0  0  0  0
 18 19  1  0  0  0  0
 19 20  2  0  0  0  0
 20 21  1  0  0  0  0
 21 22  1  0  0  0  0
 21 23  2  0  0  0  0
 23 24  1  0  0  0  0
 24 25  1  0  0  0  0
 25 26  2  0  0  0  0
 25 27  1  0  0  0  0
 27 28  1  0  0  0  0
 28 29  1  0  0  0  0
 29 34  2  0  0  0  0
 29 30  1  0  0  0  0
 30 31  2  0  0  0  0
 31 32  1  0  0  0  0
 32 33  2  0  0  0  0
 33 34  1  0  0  0  0
 11 35  1  0  0  0  0
 35 36  1  0  0  0  0
M  END
> <ID>
1591140

$$$$
1591141
  -OEChem-05171416412D

 37 40  0     1  0  0  0  0  0999 V2000
    6.9341    6.0227    0.0000 C   0  0  0  0  0  0  0  0  0  0  0  0
    6.0659    6.5189    0.0000 O   0  0  0  0  0  0  0  0  0  0  0  0
    5.2021    6.0151    0.0000 C   0  0  0  0  0  0  0  0  0  0  0  0
    4.3308    6.5164    0.0000 C   0  0  0  0  0  0  0  0  0  0  0  0
    3.4669    6.0126    0.0000 C   0  0  0  0  0  0  0  0  0  0  0  0
    3.4655    5.0126    0.0000 C   0  0  0  0  0  0  0  0  0  0  0  0
    2.5995    4.5126    0.0000 O   0  0  0  0  0  0  0  0  0  0  0  0
    2.5995    3.5126    0.0000 C   0  0  0  0  0  0  0  0  0  0  0  0
    1.7334    3.0126    0.0000 C   0  0  2  0  0  0  0  0  0  0  0  0
    2.2334    2.1466    0.0000 H   0  0  0  0  0  0  0  0  0  0  0  0
    1.2334    3.8786    0.0000 O   0  0  0  0  0  0  0  0  0  0  0  0
    0.8674    2.5126    0.0000 C   0  0  0  0  0  0  0  0  0  0  0  0
    0.8674    1.5126    0.0000 N   0  0  0  0  0  0  0  0  0  0  0  0
    0.0000    1.0051    0.0000 C   0  0  0  0  0  0  0  0  0  0  0  0
    0.0000    0.0000    0.0000 C   0  0  0  0  0  0  0  0  0  0  0  0
    0.8674   -0.4976    0.0000 N   0  0  0  0  0  0  0  0  0  0  0  0
    1.7348    0.0000    0.0000 C   0  0  0  0  0  0  0  0  0  0  0  0
    1.7348    1.0051    0.0000 C   0  0  0  0  0  0  0  0  0  0  0  0
    0.8674   -1.4976    0.0000 C   0  0  0  0  0  0  0  0  0  0  0  0
    1.7327   -1.9989    0.0000 C   0  0  0  0  0  0  0  0  0  0  0  0
    1.7371   -2.9989    0.0000 C   0  0  0  0  0  0  0  0  0  0  0  0
    0.8673   -3.5028    0.0000 C   0  0  0  0  0  0  0  0  0  0  0  0
   -0.0069   -3.0066    0.0000 C   0  0  0  0  0  0  0  0  0  0  0  0
   -0.0024   -2.0015    0.0000 C   0  0  0  0  0  0  0  0  0  0  0  0
   -0.8677   -1.5002    0.0000 C   0  0  0  0  0  0  0  0  0  0  0  0
    4.3367    4.5113    0.0000 C   0  0  0  0  0  0  0  0  0  0  0  0
    5.2094    5.0100    0.0000 C   0  0  0  0  0  0  0  0  0  0  0  0
    4.3352    3.5113    0.0000 C   0  0  0  0  0  0  0  0  0  0  0  0
    3.4685    3.0126    0.0000 O   0  0  0  0  0  0  0  0  0  0  0  0
    5.2005    3.0100    0.0000 C   0  0  0  0  0  0  0  0  0  0  0  0
    5.1990    2.0100    0.0000 C   0  0  0  0  0  0  0  0  0  0  0  0
    6.0643    1.5087    0.0000 C   0  0  0  0  0  0  0  0  0  0  0  0
    6.9341    2.0125    0.0000 C   0  0  0  0  0  0  0  0  0  0  0  0
    7.7994    1.5113    0.0000 C   0  0  0  0  0  0  0  0  0  0  0  0
    7.8038    0.5112    0.0000 C   0  0  0  0  0  0  0  0  0  0  0  0
    6.9340    0.0074    0.0000 C   0  0  0  0  0  0  0  0  0  0  0  0
    6.0598    0.5035    0.0000 C   0  0  0  0  0  0  0  0  0  0  0  0
  1  2  1  0  0  0  0
  2  3  1  0  0  0  0
  3 27  2  0  0  0  0
  3  4  1  0  0  0  0
  4  5  2  0  0  0  0
  5  6  1  0  0  0  0
  6  7  1  0  0  0  0
  7  8  1  0  0  0  0
  8  9  1  0  0  0  0
  9 10  1  6  0  0  0
  9 11  1  0  0  0  0
  9 12  1  0  0  0  0
 12 13  1  0  0  0  0
 13 18  1  0  0  0  0
 13 14  1  0  0  0  0
 14 15  1  0  0  0  0
 15 16  1  0  0  0  0
 16 17  1  0  0  0  0
 17 18  1  0  0  0  0
 16 19  1  0  0  0  0
 19 24  2  0  0  0  0
 19 20  1  0  0  0  0
 20 21  2  0  0  0  0
 21 22  1  0  0  0  0
 22 23  2  0  0  0  0
 23 24  1  0  0  0  0
 24 25  1  0  0  0  0
  6 26  2  0  0  0  0
 26 27  1  0  0  0  0
 26 28  1  0  0  0  0
 28 29  2  0  0  0  0
 28 30  1  0  0  0  0
 30 31  1  0  0  0  0
 31 32  1  0  0  0  0
 32 37  2  0  0  0  0
 32 33  1  0  0  0  0
 33 34  2  0  0  0  0
 34 35  1  0  0  0  0
 35 36  2  0  0  0  0
 36 37  1  0  0  0  0
M  END
> <ID>
1591141

$$$$
1591142
  -OEChem-05171416412D

 36 39  0     1  0  0  0  0  0999 V2000
    6.0659    6.5189    0.0000 C   0  0  0  0  0  0  0  0  0  0  0  0
    5.2021    6.0151    0.0000 C   0  0  0  0  0  0  0  0  0  0  0  0
    4.3308    6.5164    0.0000 C   0  0  0  0  0  0  0  0  0  0  0  0
    3.4669    6.0126    0.0000 C   0  0  0  0  0  0  0  0  0  0  0  0
    3.4655    5.0126    0.0000 C   0  0  0  0  0  0  0  0  0  0  0  0
    2.5995    4.5126    0.0000 O   0  0  0  0  0  0  0  0  0  0  0  0
    2.5995    3.5126    0.0000 C   0  0  0  0  0  0  0  0  0  0  0  0
    1.7334    3.0126    0.0000 C   0  0  2  0  0  0  0  0  0  0  0  0
    2.2334    2.1466    0.0000 H   0  0  0  0  0  0  0  0  0  0  0  0
    1.2334    3.8786    0.0000 O   0  0  0  0  0  0  0  0  0  0  0  0
    0.8674    2.5126    0.0000 C   0  0  0  0  0  0  0  0  0  0  0  0
    0.8674    1.5126    0.0000 N   0  0  0  0  0  0  0  0  0  0  0  0
    0.0000    1.0051    0.0000 C   0  0  0  0  0  0  0  0  0  0  0  0
    0.0000    0.0000    0.0000 C   0  0  0  0  0  0  0  0  0  0  0  0
    0.8674   -0.4976    0.0000 N   0  0  0  0  0  0  0  0  0  0  0  0
    1.7348    0.0000    0.0000 C   0  0  0  0  0  0  0  0  0  0  0  0
    1.7348    1.0051    0.0000 C   0  0  0  0  0  0  0  0  0  0  0  0
    0.8674   -1.4976    0.0000 C   0  0  0  0  0  0  0  0  0  0  0  0
    1.7327   -1.9989    0.0000 C   0  0  0  0  0  0  0  0  0  0  0  0
    1.7371   -2.9989    0.0000 C   0  0  0  0  0  0  0  0  0  0  0  0
    0.8673   -3.5028    0.0000 C   0  0  0  0  0  0  0  0  0  0  0  0
   -0.0069   -3.0066    0.0000 C   0  0  0  0  0  0  0  0  0  0  0  0
   -0.0024   -2.0015    0.0000 C   0  0  0  0  0  0  0  0  0  0  0  0
   -0.8677   -1.5002    0.0000 C   0  0  0  0  0  0  0  0  0  0  0  0
    4.3367    4.5113    0.0000 C   0  0  0  0  0  0  0  0  0  0  0  0
    5.2094    5.0100    0.0000 C   0  0  0  0  0  0  0  0  0  0  0  0
    4.3352    3.5113    0.0000 C   0  0  0  0  0  0  0  0  0  0  0  0
    3.4685    3.0126    0.0000 O   0  0  0  0  0  0  0  0  0  0  0  0
    5.2005    3.0100    0.0000 C   0  0  0  0  0  0  0  0  0  0  0  0
    5.1990    2.0100    0.0000 C   0  0  0  0  0  0  0  0  0  0  0  0
    6.0643    1.5087    0.0000 C   0  0  0  0  0  0  0  0  0  0  0  0
    6.9341    2.0125    0.0000 C   0  0  0  0  0  0  0  0  0  0  0  0
    7.7994    1.5113    0.0000 C   0  0  0  0  0  0  0  0  0  0  0  0
    7.8038    0.5112    0.0000 C   0  0  0  0  0  0  0  0  0  0  0  0
    6.9340    0.0074    0.0000 C   0  0  0  0  0  0  0  0  0  0  0  0
    6.0598    0.5035    0.0000 C   0  0  0  0  0  0  0  0  0  0  0  0
  1  2  1  0  0  0  0
  2 26  2  0  0  0  0
  2  3  1  0  0  0  0
  3  4  2  0  0  0  0
  4  5  1  0  0  0  0
  5  6  1  0  0  0  0
  6  7  1  0  0  0  0
  7  8  1  0  0  0  0
  8  9  1  6  0  0  0
  8 10  1  0  0  0  0
  8 11  1  0  0  0  0
 11 12  1  0  0  0  0
 12 17  1  0  0  0  0
 12 13  1  0  0  0  0
 13 14  1  0  0  0  0
 14 15  1  0  0  0  0
 15 16  1  0  0  0  0
 16 17  1  0  0  0  0
 15 18  1  0  0  0  0
 18 23  2  0  0  0  0
 18 19  1  0  0  0  0
 19 20  2  0  0  0  0
 20 21  1  0  0  0  0
 21 22  2  0  0  0  0
 22 23  1  0  0  0  0
 23 24  1  0  0  0  0
  5 25  2  0  0  0  0
 25 26  1  0  0  0  0
 25 27  1  0  0  0  0
 27 28  2  0  0  0  0
 27 29  1  0  0  0  0
 29 30  1  0  0  0  0
 30 31  1  0  0  0  0
 31 36  2  0  0  0  0
 31 32  1  0  0  0  0
 32 33  2  0  0  0  0
 33 34  1  0  0  0  0
 34 35  2  0  0  0  0
 35 36  1  0  0  0  0
M  END
> <ID>
1591142

$$$$
1591143
  -OEChem-05171416412D

 33 35  0     1  0  0  0  0  0999 V2000
    3.1029    2.6301    0.0000 O   0  0  0  0  0  0  0  0  0  0  0  0
    2.6054    3.4976    0.0000 C   0  0  2  0  0  0  0  0  0  0  0  0
    2.1080    4.3651    0.0000 H   0  0  0  0  0  0  0  0  0  0  0  0
    1.7379    3.0001    0.0000 C   0  0  0  0  0  0  0  0  0  0  0  0
    1.7350    2.0001    0.0000 N   0  0  0  0  0  0  0  0  0  0  0  0
    0.8675    1.5027    0.0000 C   0  0  0  0  0  0  0  0  0  0  0  0
    0.8675    0.4975    0.0000 C   0  0  0  0  0  0  0  0  0  0  0  0
    0.0000    0.0000    0.0000 C   0  0  0  0  0  0  0  0  0  0  0  0
   -0.8675    0.4975    0.0000 C   0  0  0  0  0  0  0  0  0  0  0  0
   -0.8675    1.5027    0.0000 C   0  0  0  0  0  0  0  0  0  0  0  0
    0.0000    2.0104    0.0000 C   0  0  0  0  0  0  0  0  0  0  0  0
   -1.7328   -0.0038    0.0000 C   0  0  0  0  0  0  0  0  0  0  0  0
   -1.2315   -0.8691    0.0000 F   0  0  0  0  0  0  0  0  0  0  0  0
   -2.2341    0.8615    0.0000 F   0  0  0  0  0  0  0  0  0  0  0  0
   -2.5981   -0.5050    0.0000 F   0  0  0  0  0  0  0  0  0  0  0  0
    3.4729    3.9950    0.0000 C   0  0  0  0  0  0  0  0  0  0  0  0
    3.4759    4.9950    0.0000 O   0  0  0  0  0  0  0  0  0  0  0  0
    4.3434    5.4925    0.0000 C   0  0  0  0  0  0  0  0  0  0  0  0
    4.3478    6.4925    0.0000 C   0  0  0  0  0  0  0  0  0  0  0  0
    5.2131    6.9937    0.0000 C   0  0  0  0  0  0  0  0  0  0  0  0
    6.0829    6.4898    0.0000 C   0  0  0  0  0  0  0  0  0  0  0  0
    6.0873    5.4847    0.0000 C   0  0  0  0  0  0  0  0  0  0  0  0
    5.2132    4.9886    0.0000 C   0  0  0  0  0  0  0  0  0  0  0  0
    5.2087    3.9886    0.0000 C   0  0  0  0  0  0  0  0  0  0  0  0
    4.3405    3.4924    0.0000 O   0  0  0  0  0  0  0  0  0  0  0  0
    6.0725    3.4847    0.0000 C   0  0  0  0  0  0  0  0  0  0  0  0
    6.0681    2.4847    0.0000 C   0  0  0  0  0  0  0  0  0  0  0  0
    6.9318    1.9809    0.0000 C   0  0  0  0  0  0  0  0  0  0  0  0
    7.8031    2.4822    0.0000 C   0  0  0  0  0  0  0  0  0  0  0  0
    8.6670    1.9784    0.0000 C   0  0  0  0  0  0  0  0  0  0  0  0
    8.6684    0.9783    0.0000 C   0  0  0  0  0  0  0  0  0  0  0  0
    7.7971    0.4770    0.0000 C   0  0  0  0  0  0  0  0  0  0  0  0
    6.9244    0.9758    0.0000 C   0  0  0  0  0  0  0  0  0  0  0  0
  1  2  1  0  0  0  0
  2  3  1  1  0  0  0
  2  4  1  0  0  0  0
  4  5  1  0  0  0  0
  5  6  1  0  0  0  0
  6 11  2  0  0  0  0
  6  7  1  0  0  0  0
  7  8  2  0  0  0  0
  8  9  1  0  0  0  0
  9 10  2  0  0  0  0
 10 11  1  0  0  0  0
  9 12  1  0  0  0  0
 12 13  1  0  0  0  0
 12 14  1  0  0  0  0
 12 15  1  0  0  0  0
  2 16  1  0  0  0  0
 16 17  1  0  0  0  0
 17 18  1  0  0  0  0
 18 23  2  0  0  0  0
 18 19  1  0  0  0  0
 19 20  2  0  0  0  0
 20 21  1  0  0  0  0
 21 22  2  0  0  0  0
 22 23  1  0  0  0  0
 23 24  1  0  0  0  0
 24 25  2  0  0  0  0
 24 26  1  0  0  0  0
 26 27  1  0  0  0  0
 27 28  1  0  0  0  0
 28 33  2  0  0  0  0
 28 29  1  0  0  0  0
 29 30  2  0  0  0  0
 30 31  1  0  0  0  0
 31 32  2  0  0  0  0
 32 33  1  0  0  0  0
M  END
> <ID>
1591143

$$$$
1591144
  -OEChem-05171416412D

 32 34  0     1  0  0  0  0  0999 V2000
    3.1029    2.6301    0.0000 O   0  0  0  0  0  0  0  0  0  0  0  0
    2.6054    3.4976    0.0000 C   0  0  2  0  0  0  0  0  0  0  0  0
    2.1080    4.3651    0.0000 H   0  0  0  0  0  0  0  0  0  0  0  0
    1.7379    3.0001    0.0000 C   0  0  0  0  0  0  0  0  0  0  0  0
    1.7350    2.0001    0.0000 N   0  0  0  0  0  0  0  0  0  0  0  0
    0.8675    1.5027    0.0000 C   0  0  0  0  0  0  0  0  0  0  0  0
    0.8675    0.4975    0.0000 C   0  0  0  0  0  0  0  0  0  0  0  0
    0.0000    0.0000    0.0000 C   0  0  0  0  0  0  0  0  0  0  0  0
   -0.8675    0.4975    0.0000 C   0  0  0  0  0  0  0  0  0  0  0  0
   -0.8675    1.5027    0.0000 C   0  0  0  0  0  0  0  0  0  0  0  0
    0.0000    2.0104    0.0000 C   0  0  0  0  0  0  0  0  0  0  0  0
   -1.7328   -0.0038    0.0000 N   0  3  0  0  0  0  0  0  0  0  0  0
   -2.5995    0.4950    0.0000 O   0  0  0  0  0  0  0  0  0  0  0  0
   -1.7313   -1.0038    0.0000 O   0  5  0  0  0  0  0  0  0  0  0  0
    3.4729    3.9950    0.0000 C   0  0  0  0  0  0  0  0  0  0  0  0
    3.4759    4.9950    0.0000 O   0  0  0  0  0  0  0  0  0  0  0  0
    4.3434    5.4925    0.0000 C   0  0  0  0  0  0  0  0  0  0  0  0
    4.3478    6.4925    0.0000 C   0  0  0  0  0  0  0  0  0  0  0  0
    5.2131    6.9937    0.0000 C   0  0  0  0  0  0  0  0  0  0  0  0
    6.0829    6.4898    0.0000 C   0  0  0  0  0  0  0  0  0  0  0  0
    6.0873    5.4847    0.0000 C   0  0  0  0  0  0  0  0  0  0  0  0
    5.2132    4.9886    0.0000 C   0  0  0  0  0  0  0  0  0  0  0  0
    5.2087    3.9886    0.0000 C   0  0  0  0  0  0  0  0  0  0  0  0
    4.3405    3.4924    0.0000 O   0  0  0  0  0  0  0  0  0  0  0  0
    6.0725    3.4847    0.0000 C   0  0  0  0  0  0  0  0  0  0  0  0
    6.0681    2.4847    0.0000 C   0  0  0  0  0  0  0  0  0  0  0  0
    6.9318    1.9809    0.0000 C   0  0  0  0  0  0  0  0  0  0  0  0
    7.8031    2.4822    0.0000 C   0  0  0  0  0  0  0  0  0  0  0  0
    8.6670    1.9784    0.0000 C   0  0  0  0  0  0  0  0  0  0  0  0
    8.6684    0.9783    0.0000 C   0  0  0  0  0  0  0  0  0  0  0  0
    7.7971    0.4770    0.0000 C   0  0  0  0  0  0  0  0  0  0  0  0
    6.9244    0.9758    0.0000 C   0  0  0  0  0  0  0  0  0  0  0  0
  1  2  1  0  0  0  0
  2  3  1  1  0  0  0
  2  4  1  0  0  0  0
  4  5  1  0  0  0  0
  5  6  1  0  0  0  0
  6 11  2  0  0  0  0
  6  7  1  0  0  0  0
  7  8  2  0  0  0  0
  8  9  1  0  0  0  0
  9 10  2  0  0  0  0
 10 11  1  0  0  0  0
  9 12  1  0  0  0  0
 12 13  2  0  0  0  0
 12 14  1  0  0  0  0
  2 15  1  0  0  0  0
 15 16  1  0  0  0  0
 16 17  1  0  0  0  0
 17 22  2  0  0  0  0
 17 18  1  0  0  0  0
 18 19  2  0  0  0  0
 19 20  1  0  0  0  0
 20 21  2  0  0  0  0
 21 22  1  0  0  0  0
 22 23  1  0  0  0  0
 23 24  2  0  0  0  0
 23 25  1  0  0  0  0
 25 26  1  0  0  0  0
 26 27  1  0  0  0  0
 27 32  2  0  0  0  0
 27 28  1  0  0  0  0
 28 29  2  0  0  0  0
 29 30  1  0  0  0  0
 30 31  2  0  0  0  0
 31 32  1  0  0  0  0
M  CHG  2  12   1  14  -1
M  END
> <ID>
1591144

$$$$
1591145
  -OEChem-05171416412D

 34 36  0     1  0  0  0  0  0999 V2000
    3.4612   -4.0025    0.0000 C   0  0  0  0  0  0  0  0  0  0  0  0
    4.3280   -3.5038    0.0000 C   0  0  0  0  0  0  0  0  0  0  0  0
    4.3294   -2.5038    0.0000 C   0  0  0  0  0  0  0  0  0  0  0  0
    3.4641   -2.0025    0.0000 O   0  0  0  0  0  0  0  0  0  0  0  0
    5.1962   -2.0050    0.0000 N   0  0  0  0  0  0  0  0  0  0  0  0
    5.1976   -1.0050    0.0000 C   0  0  0  0  0  0  0  0  0  0  0  0
    4.3323   -0.5038    0.0000 C   0  0  1  0  0  0  0  0  0  0  0  0
    3.8311   -1.3691    0.0000 H   0  0  0  0  0  0  0  0  0  0  0  0
    4.8336    0.3615    0.0000 O   0  0  0  0  0  0  0  0  0  0  0  0
    3.4670   -0.0025    0.0000 C   0  0  0  0  0  0  0  0  0  0  0  0
    2.6003   -0.5013    0.0000 O   0  0  0  0  0  0  0  0  0  0  0  0
    1.7350    0.0000    0.0000 C   0  0  0  0  0  0  0  0  0  0  0  0
    0.8675   -0.4975    0.0000 C   0  0  0  0  0  0  0  0  0  0  0  0
    0.0000    0.0000    0.0000 C   0  0  0  0  0  0  0  0  0  0  0  0
   -0.0000    1.0052    0.0000 C   0  0  0  0  0  0  0  0  0  0  0  0
    0.8675    1.5129    0.0000 C   0  0  0  0  0  0  0  0  0  0  0  0
    1.7350    1.0052    0.0000 C   0  0  0  0  0  0  0  0  0  0  0  0
    2.6025    1.5026    0.0000 C   0  0  0  0  0  0  0  0  0  0  0  0
    3.4670    1.0001    0.0000 O   0  0  0  0  0  0  0  0  0  0  0  0
    2.6054    2.5026    0.0000 C   0  0  0  0  0  0  0  0  0  0  0  0
    3.4729    3.0001    0.0000 C   0  0  0  0  0  0  0  0  0  0  0  0
    3.4759    4.0001    0.0000 C   0  0  0  0  0  0  0  0  0  0  0  0
    2.6054    4.5027    0.0000 C   0  0  0  0  0  0  0  0  0  0  0  0
    2.6083    5.5027    0.0000 C   0  0  0  0  0  0  0  0  0  0  0  0
    3.4729    6.0052    0.0000 C   0  0  0  0  0  0  0  0  0  0  0  0
    4.3434    5.5026    0.0000 C   0  0  0  0  0  0  0  0  0  0  0  0
    4.3493    4.4975    0.0000 C   0  0  0  0  0  0  0  0  0  0  0  0
    6.0615   -2.5063    0.0000 C   0  0  0  0  0  0  0  0  0  0  0  0
    6.9282   -2.0075    0.0000 C   0  0  0  0  0  0  0  0  0  0  0  0
    6.9267   -1.0023    0.0000 C   0  0  0  0  0  0  0  0  0  0  0  0
    7.7935   -0.5035    0.0000 C   0  0  0  0  0  0  0  0  0  0  0  0
    8.6617   -0.9997    0.0000 C   0  0  0  0  0  0  0  0  0  0  0  0
    8.6632   -2.0049    0.0000 C   0  0  0  0  0  0  0  0  0  0  0  0
    7.7965   -2.5139    0.0000 C   0  0  0  0  0  0  0  0  0  0  0  0
  1  2  1  0  0  0  0
  2  3  1  0  0  0  0
  3  4  2  0  0  0  0
  3  5  1  0  0  0  0
  5  6  1  0  0  0  0
  6  7  1  0  0  0  0
  7  8  1  1  0  0  0
  7  9  1  0  0  0  0
  7 10  1  0  0  0  0
 10 11  1  0  0  0  0
 11 12  1  0  0  0  0
 12 17  2  0  0  0  0
 12 13  1  0  0  0  0
 13 14  2  0  0  0  0
 14 15  1  0  0  0  0
 15 16  2  0  0  0  0
 16 17  1  0  0  0  0
 17 18  1  0  0  0  0
 18 19  2  0  0  0  0
 18 20  1  0  0  0  0
 20 21  1  0  0  0  0
 21 22  1  0  0  0  0
 22 27  2  0  0  0  0
 22 23  1  0  0  0  0
 23 24  2  0  0  0  0
 24 25  1  0  0  0  0
 25 26  2  0  0  0  0
 26 27  1  0  0  0  0
  5 28  1  0  0  0  0
 28 29  1  0  0  0  0
 29 34  2  0  0  0  0
 29 30  1  0  0  0  0
 30 31  2  0  0  0  0
 31 32  1  0  0  0  0
 32 33  2  0  0  0  0
 33 34  1  0  0  0  0
M  END
> <ID>
1591145

$$$$
372372
  -OEChem-05171416412D

 27 29  0     0  0  0  0  0  0999 V2000
    0.0044   -6.0001    0.0000 O   0  0  0  0  0  0  0  0  0  0  0  0
   -0.8608   -6.5014    0.0000 C   0  0  0  0  0  0  0  0  0  0  0  0
   -0.8593   -7.5014    0.0000 C   0  0  0  0  0  0  0  0  0  0  0  0
    0.0074   -8.0001    0.0000 C   0  0  0  0  0  0  0  0  0  0  0  0
    0.0089   -9.0001    0.0000 C   0  0  0  0  0  0  0  0  0  0  0  0
    0.8817   -9.4988    0.0000 C   0  0  0  0  0  0  0  0  0  0  0  0
    0.8832  -10.4988    0.0000 C   0  0  0  0  0  0  0  0  0  0  0  0
    0.0209  -11.0052    0.0000 C   0  0  0  0  0  0  0  0  0  0  0  0
   -0.8519  -10.5065    0.0000 C   0  0  0  0  0  0  0  0  0  0  0  0
   -0.8623   -9.5014    0.0000 C   0  0  0  0  0  0  0  0  0  0  0  0
   -1.7276   -6.0027    0.0000 C   0  0  0  0  0  0  0  0  0  0  0  0
   -2.5936   -6.5028    0.0000 C   0  0  0  0  0  0  0  0  0  0  0  0
   -3.4626   -6.0078    0.0000 C   0  0  0  0  0  0  0  0  0  0  0  0
   -3.4656   -5.0026    0.0000 C   0  0  0  0  0  0  0  0  0  0  0  0
   -2.5996   -4.4924    0.0000 C   0  0  0  0  0  0  0  0  0  0  0  0
   -1.7306   -4.9975    0.0000 C   0  0  0  0  0  0  0  0  0  0  0  0
   -0.8646   -4.4975    0.0000 O   0  0  0  0  0  0  0  0  0  0  0  0
   -0.8646   -3.4975    0.0000 C   0  0  0  0  0  0  0  0  0  0  0  0
    0.0015   -2.9975    0.0000 C   0  0  0  0  0  0  0  0  0  0  0  0
    0.0015   -1.9975    0.0000 C   0  0  0  0  0  0  0  0  0  0  0  0
    0.8675   -1.4975    0.0000 C   0  0  0  0  0  0  0  0  0  0  0  0
    0.8675   -0.4975    0.0000 N   0  0  0  0  0  0  0  0  0  0  0  0
    0.0000    0.0000    0.0000 C   0  0  0  0  0  0  0  0  0  0  0  0
   -0.0000    1.0052    0.0000 C   0  0  0  0  0  0  0  0  0  0  0  0
    0.8675    1.5129    0.0000 O   0  0  0  0  0  0  0  0  0  0  0  0
    1.7350    1.0052    0.0000 C   0  0  0  0  0  0  0  0  0  0  0  0
    1.7350    0.0000    0.0000 C   0  0  0  0  0  0  0  0  0  0  0  0
  1  2  2  0  0  0  0
  2  3  1  0  0  0  0
  3  4  1  0  0  0  0
  4  5  1  0  0  0  0
  5 10  2  0  0  0  0
  5  6  1  0  0  0  0
  6  7  2  0  0  0  0
  7  8  1  0  0  0  0
  8  9  2  0  0  0  0
  9 10  1  0  0  0  0
  2 11  1  0  0  0  0
 11 16  2  0  0  0  0
 11 12  1  0  0  0  0
 12 13  2  0  0  0  0
 13 14  1  0  0  0  0
 14 15  2  0  0  0  0
 15 16  1  0  0  0  0
 16 17  1  0  0  0  0
 17 18  1  0  0  0  0
 18 19  1  0  0  0  0
 19 20  1  0  0  0  0
 20 21  1  0  0  0  0
 21 22  1  0  0  0  0
 22 27  1  0  0  0  0
 22 23  1  0  0  0  0
 23 24  1  0  0  0  0
 24 25  1  0  0  0  0
 25 26  1  0  0  0  0
 26 27  1  0  0  0  0
M  END
> <ID>
372372

$$$$
372373
  -OEChem-05171416412D

 34 37  0     0  0  0  0  0  0999 V2000
    0.8717    5.5177    0.0000 F   0  0  0  0  0  0  0  0  0  0  0  0
    0.8673    4.5178    0.0000 C   0  0  0  0  0  0  0  0  0  0  0  0
    1.7371    4.0139    0.0000 C   0  0  0  0  0  0  0  0  0  0  0  0
    1.7327    3.0139    0.0000 C   0  0  0  0  0  0  0  0  0  0  0  0
    0.8674    2.5126    0.0000 C   0  0  0  0  0  0  0  0  0  0  0  0
   -0.0024    3.0165    0.0000 C   0  0  0  0  0  0  0  0  0  0  0  0
   -0.0069    4.0216    0.0000 C   0  0  0  0  0  0  0  0  0  0  0  0
    0.8674    1.5126    0.0000 N   0  0  0  0  0  0  0  0  0  0  0  0
    0.0000    1.0051    0.0000 C   0  0  0  0  0  0  0  0  0  0  0  0
    0.0000    0.0000    0.0000 C   0  0  0  0  0  0  0  0  0  0  0  0
    0.8674   -0.4976    0.0000 N   0  0  0  0  0  0  0  0  0  0  0  0
    0.8674   -1.4976    0.0000 C   0  0  0  0  0  0  0  0  0  0  0  0
    1.7334   -1.9976    0.0000 C   0  0  0  0  0  0  0  0  0  0  0  0
    1.7334   -2.9976    0.0000 C   0  0  0  0  0  0  0  0  0  0  0  0
    2.5995   -3.4976    0.0000 C   0  0  0  0  0  0  0  0  0  0  0  0
    2.5995   -4.4976    0.0000 O   0  0  0  0  0  0  0  0  0  0  0  0
    3.4655   -4.9976    0.0000 C   0  0  0  0  0  0  0  0  0  0  0  0
    4.3323   -4.4988    0.0000 C   0  0  0  0  0  0  0  0  0  0  0  0
    5.2005   -4.9951    0.0000 C   0  0  0  0  0  0  0  0  0  0  0  0
    5.2019   -6.0003    0.0000 C   0  0  0  0  0  0  0  0  0  0  0  0
    4.3352   -6.5092    0.0000 C   0  0  0  0  0  0  0  0  0  0  0  0
    3.4669   -6.0028    0.0000 C   0  0  0  0  0  0  0  0  0  0  0  0
    2.6002   -6.5015    0.0000 C   0  0  0  0  0  0  0  0  0  0  0  0
    1.7349   -6.0002    0.0000 O   0  0  0  0  0  0  0  0  0  0  0  0
    2.5987   -7.5015    0.0000 C   0  0  0  0  0  0  0  0  0  0  0  0
    1.7319   -8.0002    0.0000 C   0  0  0  0  0  0  0  0  0  0  0  0
    1.7304   -9.0002    0.0000 C   0  0  0  0  0  0  0  0  0  0  0  0
    2.6016   -9.5015    0.0000 C   0  0  0  0  0  0  0  0  0  0  0  0
    2.6002  -10.5016    0.0000 C   0  0  0  0  0  0  0  0  0  0  0  0
    1.7363  -11.0053    0.0000 C   0  0  0  0  0  0  0  0  0  0  0  0
    0.8651  -10.5040    0.0000 C   0  0  0  0  0  0  0  0  0  0  0  0
    0.8577   -9.4989    0.0000 C   0  0  0  0  0  0  0  0  0  0  0  0
    1.7348    0.0000    0.0000 C   0  0  0  0  0  0  0  0  0  0  0  0
    1.7348    1.0051    0.0000 C   0  0  0  0  0  0  0  0  0  0  0  0
  1  2  1  0  0  0  0
  2  7  2  0  0  0  0
  2  3  1  0  0  0  0
  3  4  2  0  0  0  0
  4  5  1  0  0  0  0
  5  6  2  0  0  0  0
  6  7  1  0  0  0  0
  5  8  1  0  0  0  0
  8 34  1  0  0  0  0
  8  9  1  0  0  0  0
  9 10  1  0  0  0  0
 10 11  1  0  0  0  0
 11 12  1  0  0  0  0
 12 13  1  0  0  0  0
 13 14  1  0  0  0  0
 14 15  1  0  0  0  0
 15 16  1  0  0  0  0
 16 17  1  0  0  0  0
 17 22  2  0  0  0  0
 17 18  1  0  0  0  0
 18 19  2  0  0  0  0
 19 20  1  0  0  0  0
 20 21  2  0  0  0  0
 21 22  1  0  0  0  0
 22 23  1  0  0  0  0
 23 24  2  0  0  0  0
 23 25  1  0  0  0  0
 25 26  1  0  0  0  0
 26 27  1  0  0  0  0
 27 32  2  0  0  0  0
 27 28  1  0  0  0  0
 28 29  2  0  0  0  0
 29 30  1  0  0  0  0
 30 31  2  0  0  0  0
 31 32  1  0  0  0  0
 11 33  1  0  0  0  0
 33 34  1  0  0  0  0
M  END
> <ID>
372373

$$$$
1591146
  -OEChem-05171416412D

 34 36  0     1  0  0  0  0  0999 V2000
    3.4612   -4.0025    0.0000 C   0  0  0  0  0  0  0  0  0  0  0  0
    4.3280   -3.5038    0.0000 C   0  0  0  0  0  0  0  0  0  0  0  0
    4.3294   -2.5038    0.0000 C   0  0  0  0  0  0  0  0  0  0  0  0
    5.1962   -2.0050    0.0000 N   0  0  0  0  0  0  0  0  0  0  0  0
    5.1976   -1.0050    0.0000 C   0  0  0  0  0  0  0  0  0  0  0  0
    4.3323   -0.5038    0.0000 C   0  0  1  0  0  0  0  0  0  0  0  0
    3.8311   -1.3691    0.0000 H   0  0  0  0  0  0  0  0  0  0  0  0
    4.8336    0.3615    0.0000 O   0  0  0  0  0  0  0  0  0  0  0  0
    3.4670   -0.0025    0.0000 C   0  0  0  0  0  0  0  0  0  0  0  0
    2.6003   -0.5013    0.0000 O   0  0  0  0  0  0  0  0  0  0  0  0
    1.7350    0.0000    0.0000 C   0  0  0  0  0  0  0  0  0  0  0  0
    0.8675   -0.4975    0.0000 C   0  0  0  0  0  0  0  0  0  0  0  0
    0.0000    0.0000    0.0000 C   0  0  0  0  0  0  0  0  0  0  0  0
   -0.0000    1.0052    0.0000 C   0  0  0  0  0  0  0  0  0  0  0  0
    0.8675    1.5129    0.0000 C   0  0  0  0  0  0  0  0  0  0  0  0
    1.7350    1.0052    0.0000 C   0  0  0  0  0  0  0  0  0  0  0  0
    2.6025    1.5026    0.0000 C   0  0  0  0  0  0  0  0  0  0  0  0
    3.4670    1.0001    0.0000 O   0  0  0  0  0  0  0  0  0  0  0  0
    2.6054    2.5026    0.0000 C   0  0  0  0  0  0  0  0  0  0  0  0
    3.4729    3.0001    0.0000 C   0  0  0  0  0  0  0  0  0  0  0  0
    3.4759    4.0001    0.0000 C   0  0  0  0  0  0  0  0  0  0  0  0
    2.6054    4.5027    0.0000 C   0  0  0  0  0  0  0  0  0  0  0  0
    2.6083    5.5027    0.0000 C   0  0  0  0  0  0  0  0  0  0  0  0
    3.4729    6.0052    0.0000 C   0  0  0  0  0  0  0  0  0  0  0  0
    4.3434    5.5026    0.0000 C   0  0  0  0  0  0  0  0  0  0  0  0
    4.3493    4.4975    0.0000 C   0  0  0  0  0  0  0  0  0  0  0  0
    6.0615   -2.5063    0.0000 C   0  0  0  0  0  0  0  0  0  0  0  0
    6.0600   -3.5063    0.0000 O   0  0  0  0  0  0  0  0  0  0  0  0
    6.9282   -2.0075    0.0000 C   0  0  0  0  0  0  0  0  0  0  0  0
    6.9267   -1.0023    0.0000 C   0  0  0  0  0  0  0  0  0  0  0  0
    7.7935   -0.5035    0.0000 C   0  0  0  0  0  0  0  0  0  0  0  0
    8.6617   -0.9997    0.0000 C   0  0  0  0  0  0  0  0  0  0  0  0
    8.6632   -2.0049    0.0000 C   0  0  0  0  0  0  0  0  0  0  0  0
    7.7965   -2.5139    0.0000 C   0  0  0  0  0  0  0  0  0  0  0  0
  1  2  1  0  0  0  0
  2  3  1  0  0  0  0
  3  4  1  0  0  0  0
  4  5  1  0  0  0  0
  5  6  1  0  0  0  0
  6  7  1  1  0  0  0
  6  8  1  0  0  0  0
  6  9  1  0  0  0  0
  9 10  1  0  0  0  0
 10 11  1  0  0  0  0
 11 16  2  0  0  0  0
 11 12  1  0  0  0  0
 12 13  2  0  0  0  0
 13 14  1  0  0  0  0
 14 15  2  0  0  0  0
 15 16  1  0  0  0  0
 16 17  1  0  0  0  0
 17 18  2  0  0  0  0
 17 19  1  0  0  0  0
 19 20  1  0  0  0  0
 20 21  1  0  0  0  0
 21 26  2  0  0  0  0
 21 22  1  0  0  0  0
 22 23  2  0  0  0  0
 23 24  1  0  0  0  0
 24 25  2  0  0  0  0
 25 26  1  0  0  0  0
  4 27  1  0  0  0  0
 27 28  2  0  0  0  0
 27 29  1  0  0  0  0
 29 34  2  0  0  0  0
 29 30  1  0  0  0  0
 30 31  2  0  0  0  0
 31 32  1  0  0  0  0
 32 33  2  0  0  0  0
 33 34  1  0  0  0  0
M  END
> <ID>
1591146

$$$$
1591147
  -OEChem-05171416412D

 32 35  0     1  0  0  0  0  0999 V2000
    0.5015   -2.8635    0.0000 O   0  0  0  0  0  0  0  0  0  0  0  0
    0.0015   -1.9975    0.0000 C   0  0  1  0  0  0  0  0  0  0  0  0
   -0.4985   -1.1315    0.0000 H   0  0  0  0  0  0  0  0  0  0  0  0
   -0.8646   -2.4975    0.0000 C   0  0  0  0  0  0  0  0  0  0  0  0
   -0.8646   -3.4975    0.0000 O   0  0  0  0  0  0  0  0  0  0  0  0
   -1.7306   -3.9975    0.0000 C   0  0  0  0  0  0  0  0  0  0  0  0
   -1.7320   -4.9975    0.0000 C   0  0  0  0  0  0  0  0  0  0  0  0
   -2.5959   -5.5013    0.0000 C   0  0  0  0  0  0  0  0  0  0  0  0
   -3.4672   -5.0000    0.0000 C   0  0  0  0  0  0  0  0  0  0  0  0
   -3.4745   -3.9949    0.0000 C   0  0  0  0  0  0  0  0  0  0  0  0
   -2.6018   -3.4962    0.0000 C   0  0  0  0  0  0  0  0  0  0  0  0
   -2.6003   -2.4962    0.0000 C   0  0  0  0  0  0  0  0  0  0  0  0
   -1.7336   -1.9975    0.0000 O   0  0  0  0  0  0  0  0  0  0  0  0
   -3.4656   -1.9949    0.0000 C   0  0  0  0  0  0  0  0  0  0  0  0
   -3.4641   -0.9949    0.0000 C   0  0  0  0  0  0  0  0  0  0  0  0
   -4.3294   -0.4936    0.0000 C   0  0  0  0  0  0  0  0  0  0  0  0
   -5.2045   -0.9931    0.0000 C   0  0  0  0  0  0  0  0  0  0  0  0
   -6.0740   -0.4878    0.0000 C   0  0  0  0  0  0  0  0  0  0  0  0
   -6.0683    0.5171    0.0000 C   0  0  0  0  0  0  0  0  0  0  0  0
   -5.2008    1.0146    0.0000 C   0  0  0  0  0  0  0  0  0  0  0  0
   -5.1932    2.0162    0.0000 C   0  0  0  0  0  0  0  0  0  0  0  0
   -4.3260    2.5153    0.0000 C   0  0  0  0  0  0  0  0  0  0  0  0
   -3.4572    2.0089    0.0000 C   0  0  0  0  0  0  0  0  0  0  0  0
   -3.4555    1.0033    0.0000 C   0  0  0  0  0  0  0  0  0  0  0  0
   -4.3313    0.5093    0.0000 C   0  0  0  0  0  0  0  0  0  0  0  0
    0.8675   -1.4975    0.0000 C   0  0  0  0  0  0  0  0  0  0  0  0
    0.8675   -0.4975    0.0000 N   0  0  0  0  0  0  0  0  0  0  0  0
    0.0000    0.0000    0.0000 C   0  0  0  0  0  0  0  0  0  0  0  0
   -0.0000    1.0052    0.0000 C   0  0  0  0  0  0  0  0  0  0  0  0
    0.8675    1.5129    0.0000 O   0  0  0  0  0  0  0  0  0  0  0  0
    1.7350    1.0052    0.0000 C   0  0  0  0  0  0  0  0  0  0  0  0
    1.7350    0.0000    0.0000 C   0  0  0  0  0  0  0  0  0  0  0  0
  1  2  1  0  0  0  0
  2  3  1  6  0  0  0
  2  4  1  0  0  0  0
  4  5  1  0  0  0  0
  5  6  1  0  0  0  0
  6 11  2  0  0  0  0
  6  7  1  0  0  0  0
  7  8  2  0  0  0  0
  8  9  1  0  0  0  0
  9 10  2  0  0  0  0
 10 11  1  0  0  0  0
 11 12  1  0  0  0  0
 12 13  2  0  0  0  0
 12 14  1  0  0  0  0
 14 15  1  0  0  0  0
 15 16  1  0  0  0  0
 16 25  2  0  0  0  0
 16 17  1  0  0  0  0
 17 18  2  0  0  0  0
 18 19  1  0  0  0  0
 19 20  2  0  0  0  0
 20 25  1  0  0  0  0
 20 21  1  0  0  0  0
 21 22  2  0  0  0  0
 22 23  1  0  0  0  0
 23 24  2  0  0  0  0
 24 25  1  0  0  0  0
  2 26  1  0  0  0  0
 26 27  1  0  0  0  0
 27 32  1  0  0  0  0
 27 28  1  0  0  0  0
 28 29  1  0  0  0  0
 29 30  1  0  0  0  0
 30 31  1  0  0  0  0
 31 32  1  0  0  0  0
M  END
> <ID>
1591147

$$$$
1591148
  -OEChem-05171416412D

 33 35  0     1  0  0  0  0  0999 V2000
   -1.7679    9.0091    0.0000 C   0  0  0  0  0  0  0  0  0  0  0  0
   -1.7637    8.0091    0.0000 C   0  0  0  0  0  0  0  0  0  0  0  0
   -0.8956    7.5128    0.0000 C   0  0  0  0  0  0  0  0  0  0  0  0
   -2.6276    7.5055    0.0000 N   0  0  0  0  0  0  0  0  0  0  0  0
   -2.6235    6.5055    0.0000 C   0  0  0  0  0  0  0  0  0  0  0  0
   -1.7554    6.0092    0.0000 C   0  0  1  0  0  0  0  0  0  0  0  0
   -1.2590    6.8773    0.0000 H   0  0  0  0  0  0  0  0  0  0  0  0
   -2.2517    5.1411    0.0000 O   0  0  0  0  0  0  0  0  0  0  0  0
   -0.8873    5.5128    0.0000 C   0  0  0  0  0  0  0  0  0  0  0  0
   -0.0233    6.0164    0.0000 O   0  0  0  0  0  0  0  0  0  0  0  0
    0.8448    5.5200    0.0000 C   0  0  0  0  0  0  0  0  0  0  0  0
    1.7095    6.0224    0.0000 C   0  0  0  0  0  0  0  0  0  0  0  0
    2.5798    5.5298    0.0000 C   0  0  0  0  0  0  0  0  0  0  0  0
    2.5854    4.5246    0.0000 C   0  0  0  0  0  0  0  0  0  0  0  0
    1.7208    4.0120    0.0000 C   0  0  0  0  0  0  0  0  0  0  0  0
    0.8504    4.5148    0.0000 C   0  0  0  0  0  0  0  0  0  0  0  0
   -0.0143    4.0125    0.0000 C   0  0  0  0  0  0  0  0  0  0  0  0
   -0.8816    4.5102    0.0000 O   0  0  0  0  0  0  0  0  0  0  0  0
   -0.0116    3.0125    0.0000 C   0  0  0  0  0  0  0  0  0  0  0  0
   -0.8763    2.5102    0.0000 C   0  0  0  0  0  0  0  0  0  0  0  0
   -0.8736    1.5102    0.0000 C   0  0  0  0  0  0  0  0  0  0  0  0
   -0.0013    1.0057    0.0000 C   0  0  0  0  0  0  0  0  0  0  0  0
    0.0000    0.0000    0.0000 C   0  0  0  0  0  0  0  0  0  0  0  0
   -0.8710   -0.5011    0.0000 C   0  0  0  0  0  0  0  0  0  0  0  0
   -1.7377   -0.0022    0.0000 C   0  0  0  0  0  0  0  0  0  0  0  0
   -2.6069   -0.5000    0.0000 C   0  0  0  0  0  0  0  0  0  0  0  0
   -3.4748   -0.0022    0.0000 C   0  0  0  0  0  0  0  0  0  0  0  0
   -3.4748    1.0035    0.0000 C   0  0  0  0  0  0  0  0  0  0  0  0
   -2.6069    1.5113    0.0000 C   0  0  0  0  0  0  0  0  0  0  0  0
   -1.7390    1.0035    0.0000 C   0  0  0  0  0  0  0  0  0  0  0  0
   -3.4957    8.0019    0.0000 C   0  0  0  0  0  0  0  0  0  0  0  0
   -4.3597    7.4983    0.0000 C   0  0  0  0  0  0  0  0  0  0  0  0
   -3.4999    9.0019    0.0000 C   0  0  0  0  0  0  0  0  0  0  0  0
  1  2  1  0  0  0  0
  2  3  1  0  0  0  0
  2  4  1  0  0  0  0
  4  5  1  0  0  0  0
  5  6  1  0  0  0  0
  6  7  1  1  0  0  0
  6  8  1  0  0  0  0
  6  9  1  0  0  0  0
  9 10  1  0  0  0  0
 10 11  1  0  0  0  0
 11 16  2  0  0  0  0
 11 12  1  0  0  0  0
 12 13  2  0  0  0  0
 13 14  1  0  0  0  0
 14 15  2  0  0  0  0
 15 16  1  0  0  0  0
 16 17  1  0  0  0  0
 17 18  2  0  0  0  0
 17 19  1  0  0  0  0
 19 20  1  0  0  0  0
 20 21  1  0  0  0  0
 21 30  2  0  0  0  0
 21 22  1  0  0  0  0
 22 23  2  0  0  0  0
 23 24  1  0  0  0  0
 24 25  2  0  0  0  0
 25 30  1  0  0  0  0
 25 26  1  0  0  0  0
 26 27  2  0  0  0  0
 27 28  1  0  0  0  0
 28 29  2  0  0  0  0
 29 30  1  0  0  0  0
  4 31  1  0  0  0  0
 31 32  1  0  0  0  0
 31 33  1  0  0  0  0
M  END
> <ID>
1591148

$$$$
1591149
  -OEChem-05171416412D

 29 31  0     1  0  0  0  0  0999 V2000
   -0.0037    7.0117    0.0000 C   0  0  0  0  0  0  0  0  0  0  0  0
    0.8631    6.5130    0.0000 C   0  0  0  0  0  0  0  0  0  0  0  0
    1.7283    7.0143    0.0000 C   0  0  0  0  0  0  0  0  0  0  0  0
    1.7268    8.0143    0.0000 O   0  0  0  0  0  0  0  0  0  0  0  0
    2.5951    6.5156    0.0000 C   0  0  0  0  0  0  0  0  0  0  0  0
    3.4611    7.0157    0.0000 C   0  0  0  0  0  0  0  0  0  0  0  0
    4.3301    6.5207    0.0000 C   0  0  0  0  0  0  0  0  0  0  0  0
    4.3331    5.5155    0.0000 C   0  0  0  0  0  0  0  0  0  0  0  0
    3.4671    5.0053    0.0000 C   0  0  0  0  0  0  0  0  0  0  0  0
    2.5981    5.5104    0.0000 C   0  0  0  0  0  0  0  0  0  0  0  0
    1.7321    5.0104    0.0000 O   0  0  0  0  0  0  0  0  0  0  0  0
    1.7321    4.0104    0.0000 C   0  0  0  0  0  0  0  0  0  0  0  0
    0.8660    3.5104    0.0000 C   0  0  2  0  0  0  0  0  0  0  0  0
    1.3660    2.6444    0.0000 H   0  0  0  0  0  0  0  0  0  0  0  0
    0.3660    4.3764    0.0000 O   0  0  0  0  0  0  0  0  0  0  0  0
   -0.0000    3.0104    0.0000 C   0  0  0  0  0  0  0  0  0  0  0  0
   -0.0000    2.0104    0.0000 N   0  0  0  0  0  0  0  0  0  0  0  0
   -0.8675    1.5027    0.0000 C   0  0  0  0  0  0  0  0  0  0  0  0
   -0.8675    0.4975    0.0000 C   0  0  0  0  0  0  0  0  0  0  0  0
    0.0000    0.0000    0.0000 C   0  0  0  0  0  0  0  0  0  0  0  0
    0.6420   -0.7667    0.0000 O   0  0  0  0  0  0  0  0  0  0  0  0
    0.8675    0.4975    0.0000 C   0  0  0  0  0  0  0  0  0  0  0  0
    0.8675    1.5027    0.0000 C   0  0  0  0  0  0  0  0  0  0  0  0
   -0.6420   -0.7667    0.0000 C   0  0  0  0  0  0  0  0  0  0  0  0
   -0.2946   -1.7099    0.0000 C   0  0  0  0  0  0  0  0  0  0  0  0
   -0.9366   -2.4766    0.0000 C   0  0  0  0  0  0  0  0  0  0  0  0
   -1.9226   -2.3097    0.0000 C   0  0  0  0  0  0  0  0  0  0  0  0
   -2.2701   -1.3665    0.0000 C   0  0  0  0  0  0  0  0  0  0  0  0
   -1.6316   -0.5902    0.0000 C   0  0  0  0  0  0  0  0  0  0  0  0
  1  2  1  0  0  0  0
  2  3  1  0  0  0  0
  3  4  2  0  0  0  0
  3  5  1  0  0  0  0
  5 10  2  0  0  0  0
  5  6  1  0  0  0  0
  6  7  2  0  0  0  0
  7  8  1  0  0  0  0
  8  9  2  0  0  0  0
  9 10  1  0  0  0  0
 10 11  1  0  0  0  0
 11 12  1  0  0  0  0
 12 13  1  0  0  0  0
 13 14  1  6  0  0  0
 13 15  1  0  0  0  0
 13 16  1  0  0  0  0
 16 17  1  0  0  0  0
 17 23  1  0  0  0  0
 17 18  1  0  0  0  0
 18 19  1  0  0  0  0
 19 20  1  0  0  0  0
 20 21  1  0  0  0  0
 20 22  1  0  0  0  0
 22 23  1  0  0  0  0
 20 24  1  0  0  0  0
 24 29  2  0  0  0  0
 24 25  1  0  0  0  0
 25 26  2  0  0  0  0
 26 27  1  0  0  0  0
 27 28  2  0  0  0  0
 28 29  1  0  0  0  0
M  END
> <ID>
1591149

$$$$
1591150
  -OEChem-05171416412D

 39 43  0     1  0  0  0  0  0999 V2000
    0.3660    4.3764    0.0000 O   0  0  0  0  0  0  0  0  0  0  0  0
    0.8660    3.5104    0.0000 C   0  0  1  0  0  0  0  0  0  0  0  0
    1.3660    2.6444    0.0000 H   0  0  0  0  0  0  0  0  0  0  0  0
    1.7321    4.0104    0.0000 C   0  0  0  0  0  0  0  0  0  0  0  0
    1.7321    5.0104    0.0000 O   0  0  0  0  0  0  0  0  0  0  0  0
    2.5981    5.5104    0.0000 C   0  0  0  0  0  0  0  0  0  0  0  0
    2.5995    6.5104    0.0000 C   0  0  0  0  0  0  0  0  0  0  0  0
    3.4634    7.0142    0.0000 C   0  0  0  0  0  0  0  0  0  0  0  0
    4.3347    6.5129    0.0000 C   0  0  0  0  0  0  0  0  0  0  0  0
    4.3420    5.5078    0.0000 C   0  0  0  0  0  0  0  0  0  0  0  0
    3.4693    5.0091    0.0000 C   0  0  0  0  0  0  0  0  0  0  0  0
    3.4678    4.0091    0.0000 C   0  0  0  0  0  0  0  0  0  0  0  0
    2.6011    3.5104    0.0000 O   0  0  0  0  0  0  0  0  0  0  0  0
    4.3331    3.5078    0.0000 C   0  0  0  0  0  0  0  0  0  0  0  0
    4.3316    2.5078    0.0000 C   0  0  0  0  0  0  0  0  0  0  0  0
    5.1969    2.0065    0.0000 C   0  0  0  0  0  0  0  0  0  0  0  0
    6.0720    2.5060    0.0000 C   0  0  0  0  0  0  0  0  0  0  0  0
    6.9415    2.0007    0.0000 C   0  0  0  0  0  0  0  0  0  0  0  0
    6.9358    0.9958    0.0000 C   0  0  0  0  0  0  0  0  0  0  0  0
    6.0683    0.4983    0.0000 C   0  0  0  0  0  0  0  0  0  0  0  0
    6.0607   -0.5033    0.0000 C   0  0  0  0  0  0  0  0  0  0  0  0
    5.1935   -1.0024    0.0000 C   0  0  0  0  0  0  0  0  0  0  0  0
    4.3247   -0.4960    0.0000 C   0  0  0  0  0  0  0  0  0  0  0  0
    4.3230    0.5096    0.0000 C   0  0  0  0  0  0  0  0  0  0  0  0
    5.1988    1.0036    0.0000 C   0  0  0  0  0  0  0  0  0  0  0  0
   -0.0000    3.0104    0.0000 C   0  0  0  0  0  0  0  0  0  0  0  0
   -0.0000    2.0104    0.0000 N   0  0  0  0  0  0  0  0  0  0  0  0
   -0.8675    1.5027    0.0000 C   0  0  0  0  0  0  0  0  0  0  0  0
   -0.8675    0.4975    0.0000 C   0  0  0  0  0  0  0  0  0  0  0  0
    0.0000    0.0000    0.0000 C   0  0  0  0  0  0  0  0  0  0  0  0
    0.6420   -0.7667    0.0000 O   0  0  0  0  0  0  0  0  0  0  0  0
    0.8675    0.4975    0.0000 C   0  0  0  0  0  0  0  0  0  0  0  0
    0.8675    1.5027    0.0000 C   0  0  0  0  0  0  0  0  0  0  0  0
   -0.6420   -0.7667    0.0000 C   0  0  0  0  0  0  0  0  0  0  0  0
   -0.2946   -1.7099    0.0000 C   0  0  0  0  0  0  0  0  0  0  0  0
   -0.9366   -2.4766    0.0000 C   0  0  0  0  0  0  0  0  0  0  0  0
   -1.9226   -2.3097    0.0000 C   0  0  0  0  0  0  0  0  0  0  0  0
   -2.2701   -1.3665    0.0000 C   0  0  0  0  0  0  0  0  0  0  0  0
   -1.6316   -0.5902    0.0000 C   0  0  0  0  0  0  0  0  0  0  0  0
  1  2  1  0  0  0  0
  2  3  1  6  0  0  0
  2  4  1  0  0  0  0
  4  5  1  0  0  0  0
  5  6  1  0  0  0  0
  6 11  2  0  0  0  0
  6  7  1  0  0  0  0
  7  8  2  0  0  0  0
  8  9  1  0  0  0  0
  9 10  2  0  0  0  0
 10 11  1  0  0  0  0
 11 12  1  0  0  0  0
 12 13  2  0  0  0  0
 12 14  1  0  0  0  0
 14 15  1  0  0  0  0
 15 16  1  0  0  0  0
 16 25  2  0  0  0  0
 16 17  1  0  0  0  0
 17 18  2  0  0  0  0
 18 19  1  0  0  0  0
 19 20  2  0  0  0  0
 20 25  1  0  0  0  0
 20 21  1  0  0  0  0
 21 22  2  0  0  0  0
 22 23  1  0  0  0  0
 23 24  2  0  0  0  0
 24 25  1  0  0  0  0
  2 26  1  0  0  0  0
 26 27  1  0  0  0  0
 27 33  1  0  0  0  0
 27 28  1  0  0  0  0
 28 29  1  0  0  0  0
 29 30  1  0  0  0  0
 30 31  1  0  0  0  0
 30 32  1  0  0  0  0
 32 33  1  0  0  0  0
 30 34  1  0  0  0  0
 34 39  2  0  0  0  0
 34 35  1  0  0  0  0
 35 36  2  0  0  0  0
 36 37  1  0  0  0  0
 37 38  2  0  0  0  0
 38 39  1  0  0  0  0
M  END
> <ID>
1591150

$$$$
1591151
  -OEChem-05171416412D

 21 22  0     1  0  0  0  0  0999 V2000
   -4.3404   -2.5078    0.0000 C   0  0  0  0  0  0  0  0  0  0  0  0
   -4.3345   -3.5077    0.0000 C   0  0  0  0  0  0  0  0  0  0  0  0
   -5.1976   -4.0128    0.0000 O   0  0  0  0  0  0  0  0  0  0  0  0
   -3.4656   -4.0026    0.0000 C   0  0  0  0  0  0  0  0  0  0  0  0
   -3.4626   -5.0078    0.0000 C   0  0  0  0  0  0  0  0  0  0  0  0
   -2.5936   -5.5028    0.0000 C   0  0  0  0  0  0  0  0  0  0  0  0
   -1.7276   -5.0027    0.0000 C   0  0  0  0  0  0  0  0  0  0  0  0
   -1.7306   -3.9975    0.0000 C   0  0  0  0  0  0  0  0  0  0  0  0
   -0.8646   -3.4975    0.0000 O   0  0  0  0  0  0  0  0  0  0  0  0
   -0.8646   -2.4975    0.0000 C   0  0  0  0  0  0  0  0  0  0  0  0
    0.0015   -1.9975    0.0000 C   0  0  2  0  0  0  0  0  0  0  0  0
   -0.4985   -1.1315    0.0000 H   0  0  0  0  0  0  0  0  0  0  0  0
    0.5015   -2.8635    0.0000 O   0  0  0  0  0  0  0  0  0  0  0  0
    0.8675   -1.4975    0.0000 C   0  0  0  0  0  0  0  0  0  0  0  0
    0.8675   -0.4975    0.0000 N   0  0  0  0  0  0  0  0  0  0  0  0
    0.0000    0.0000    0.0000 C   0  0  0  0  0  0  0  0  0  0  0  0
   -0.0000    1.0052    0.0000 C   0  0  0  0  0  0  0  0  0  0  0  0
    0.8675    1.5129    0.0000 O   0  0  0  0  0  0  0  0  0  0  0  0
    1.7350    1.0052    0.0000 C   0  0  0  0  0  0  0  0  0  0  0  0
    1.7350    0.0000    0.0000 C   0  0  0  0  0  0  0  0  0  0  0  0
   -2.5996   -3.4924    0.0000 C   0  0  0  0  0  0  0  0  0  0  0  0
  1  2  1  0  0  0  0
  2  3  2  0  0  0  0
  2  4  1  0  0  0  0
  4 21  2  0  0  0  0
  4  5  1  0  0  0  0
  5  6  2  0  0  0  0
  6  7  1  0  0  0  0
  7  8  2  0  0  0  0
  8  9  1  0  0  0  0
  9 10  1  0  0  0  0
 10 11  1  0  0  0  0
 11 12  1  6  0  0  0
 11 13  1  0  0  0  0
 11 14  1  0  0  0  0
 14 15  1  0  0  0  0
 15 20  1  0  0  0  0
 15 16  1  0  0  0  0
 16 17  1  0  0  0  0
 17 18  1  0  0  0  0
 18 19  1  0  0  0  0
 19 20  1  0  0  0  0
  8 21  1  0  0  0  0
M  END
> <ID>
1591151

$$$$
1591152
  -OEChem-05171416412D

 21 22  0     1  0  0  0  0  0999 V2000
    5.2079    4.0207    0.0000 C   0  0  0  0  0  0  0  0  0  0  0  0
    5.2020    5.0206    0.0000 C   0  0  0  0  0  0  0  0  0  0  0  0
    6.0651    5.5257    0.0000 O   0  0  0  0  0  0  0  0  0  0  0  0
    4.3331    5.5155    0.0000 C   0  0  0  0  0  0  0  0  0  0  0  0
    4.3301    6.5207    0.0000 C   0  0  0  0  0  0  0  0  0  0  0  0
    3.4611    7.0157    0.0000 C   0  0  0  0  0  0  0  0  0  0  0  0
    2.5951    6.5156    0.0000 C   0  0  0  0  0  0  0  0  0  0  0  0
    2.5981    5.5104    0.0000 C   0  0  0  0  0  0  0  0  0  0  0  0
    1.7321    5.0104    0.0000 O   0  0  0  0  0  0  0  0  0  0  0  0
    1.7321    4.0104    0.0000 C   0  0  0  0  0  0  0  0  0  0  0  0
    0.8660    3.5104    0.0000 C   0  0  2  0  0  0  0  0  0  0  0  0
    1.3660    2.6444    0.0000 H   0  0  0  0  0  0  0  0  0  0  0  0
    0.3660    4.3764    0.0000 O   0  0  0  0  0  0  0  0  0  0  0  0
   -0.0000    3.0104    0.0000 C   0  0  0  0  0  0  0  0  0  0  0  0
   -0.0000    2.0104    0.0000 N   0  0  0  0  0  0  0  0  0  0  0  0
   -0.8675    1.5027    0.0000 C   0  0  0  0  0  0  0  0  0  0  0  0
   -0.8675    0.4975    0.0000 C   0  0  0  0  0  0  0  0  0  0  0  0
    0.0000    0.0000    0.0000 C   0  0  0  0  0  0  0  0  0  0  0  0
    0.8675    0.4975    0.0000 C   0  0  0  0  0  0  0  0  0  0  0  0
    0.8675    1.5027    0.0000 C   0  0  0  0  0  0  0  0  0  0  0  0
    3.4671    5.0053    0.0000 C   0  0  0  0  0  0  0  0  0  0  0  0
  1  2  1  0  0  0  0
  2  3  2  0  0  0  0
  2  4  1  0  0  0  0
  4 21  2  0  0  0  0
  4  5  1  0  0  0  0
  5  6  2  0  0  0  0
  6  7  1  0  0  0  0
  7  8  2  0  0  0  0
  8  9  1  0  0  0  0
  9 10  1  0  0  0  0
 10 11  1  0  0  0  0
 11 12  1  6  0  0  0
 11 13  1  0  0  0  0
 11 14  1  0  0  0  0
 14 15  1  0  0  0  0
 15 20  1  0  0  0  0
 15 16  1  0  0  0  0
 16 17  1  0  0  0  0
 17 18  1  0  0  0  0
 18 19  1  0  0  0  0
 19 20  1  0  0  0  0
  8 21  1  0  0  0  0
M  END
> <ID>
1591152

$$$$
1591153
  -OEChem-05171416412D

 28 30  0     1  0  0  0  0  0999 V2000
    6.0753    3.5229    0.0000 C   0  0  0  0  0  0  0  0  0  0  0  0
    6.0694    4.5228    0.0000 C   0  0  0  0  0  0  0  0  0  0  0  0
    6.9325    5.0279    0.0000 O   0  0  0  0  0  0  0  0  0  0  0  0
    5.2005    5.0177    0.0000 C   0  0  0  0  0  0  0  0  0  0  0  0
    5.1975    6.0229    0.0000 C   0  0  0  0  0  0  0  0  0  0  0  0
    4.3285    6.5179    0.0000 C   0  0  0  0  0  0  0  0  0  0  0  0
    3.4625    6.0178    0.0000 C   0  0  0  0  0  0  0  0  0  0  0  0
    3.4655    5.0126    0.0000 C   0  0  0  0  0  0  0  0  0  0  0  0
    2.5995    4.5126    0.0000 O   0  0  0  0  0  0  0  0  0  0  0  0
    2.5995    3.5126    0.0000 C   0  0  0  0  0  0  0  0  0  0  0  0
    1.7334    3.0126    0.0000 C   0  0  2  0  0  0  0  0  0  0  0  0
    2.2334    2.1466    0.0000 H   0  0  0  0  0  0  0  0  0  0  0  0
    1.2334    3.8786    0.0000 O   0  0  0  0  0  0  0  0  0  0  0  0
    0.8674    2.5126    0.0000 C   0  0  0  0  0  0  0  0  0  0  0  0
    0.8674    1.5126    0.0000 N   0  0  0  0  0  0  0  0  0  0  0  0
    0.0000    1.0051    0.0000 C   0  0  0  0  0  0  0  0  0  0  0  0
    0.0000    0.0000    0.0000 C   0  0  0  0  0  0  0  0  0  0  0  0
    0.8674   -0.4976    0.0000 N   0  0  0  0  0  0  0  0  0  0  0  0
    1.7348    0.0000    0.0000 C   0  0  0  0  0  0  0  0  0  0  0  0
    1.7348    1.0051    0.0000 C   0  0  0  0  0  0  0  0  0  0  0  0
    0.8674   -1.4976    0.0000 C   0  0  0  0  0  0  0  0  0  0  0  0
    1.7394   -1.9976    0.0000 C   0  0  0  0  0  0  0  0  0  0  0  0
    1.7395   -2.9977    0.0000 C   0  0  0  0  0  0  0  0  0  0  0  0
    0.8763   -3.5027    0.0000 C   0  0  0  0  0  0  0  0  0  0  0  0
    0.8807   -4.5027    0.0000 F   0  0  0  0  0  0  0  0  0  0  0  0
    0.0043   -3.0027    0.0000 C   0  0  0  0  0  0  0  0  0  0  0  0
   -0.0046   -1.9976    0.0000 C   0  0  0  0  0  0  0  0  0  0  0  0
    4.3345    4.5075    0.0000 C   0  0  0  0  0  0  0  0  0  0  0  0
  1  2  1  0  0  0  0
  2  3  2  0  0  0  0
  2  4  1  0  0  0  0
  4 28  2  0  0  0  0
  4  5  1  0  0  0  0
  5  6  2  0  0  0  0
  6  7  1  0  0  0  0
  7  8  2  0  0  0  0
  8  9  1  0  0  0  0
  9 10  1  0  0  0  0
 10 11  1  0  0  0  0
 11 12  1  6  0  0  0
 11 13  1  0  0  0  0
 11 14  1  0  0  0  0
 14 15  1  0  0  0  0
 15 20  1  0  0  0  0
 15 16  1  0  0  0  0
 16 17  1  0  0  0  0
 17 18  1  0  0  0  0
 18 19  1  0  0  0  0
 19 20  1  0  0  0  0
 18 21  1  0  0  0  0
 21 27  2  0  0  0  0
 21 22  1  0  0  0  0
 22 23  2  0  0  0  0
 23 24  1  0  0  0  0
 24 25  1  0  0  0  0
 24 26  2  0  0  0  0
 26 27  1  0  0  0  0
  8 28  1  0  0  0  0
M  END
> <ID>
1591153

$$$$
1591154
  -OEChem-05171416412D

 36 39  0     1  0  0  0  0  0999 V2000
    1.2334    3.8786    0.0000 O   0  0  0  0  0  0  0  0  0  0  0  0
    1.7334    3.0126    0.0000 C   0  0  1  0  0  0  0  0  0  0  0  0
    2.2334    2.1466    0.0000 H   0  0  0  0  0  0  0  0  0  0  0  0
    2.5995    3.5126    0.0000 C   0  0  0  0  0  0  0  0  0  0  0  0
    2.5995    4.5126    0.0000 O   0  0  0  0  0  0  0  0  0  0  0  0
    3.4655    5.0126    0.0000 C   0  0  0  0  0  0  0  0  0  0  0  0
    3.4669    6.0126    0.0000 C   0  0  0  0  0  0  0  0  0  0  0  0
    4.3308    6.5164    0.0000 C   0  0  0  0  0  0  0  0  0  0  0  0
    5.2021    6.0151    0.0000 C   0  0  0  0  0  0  0  0  0  0  0  0
    5.2094    5.0100    0.0000 C   0  0  0  0  0  0  0  0  0  0  0  0
    4.3367    4.5113    0.0000 C   0  0  0  0  0  0  0  0  0  0  0  0
    4.3352    3.5113    0.0000 C   0  0  0  0  0  0  0  0  0  0  0  0
    3.4685    3.0126    0.0000 O   0  0  0  0  0  0  0  0  0  0  0  0
    5.2005    3.0100    0.0000 C   0  0  0  0  0  0  0  0  0  0  0  0
    5.1990    2.0100    0.0000 C   0  0  0  0  0  0  0  0  0  0  0  0
    6.0643    1.5087    0.0000 C   0  0  0  0  0  0  0  0  0  0  0  0
    6.9341    2.0125    0.0000 C   0  0  0  0  0  0  0  0  0  0  0  0
    7.7994    1.5113    0.0000 C   0  0  0  0  0  0  0  0  0  0  0  0
    7.8038    0.5112    0.0000 C   0  0  0  0  0  0  0  0  0  0  0  0
    6.9340    0.0074    0.0000 C   0  0  0  0  0  0  0  0  0  0  0  0
    6.0598    0.5035    0.0000 C   0  0  0  0  0  0  0  0  0  0  0  0
    0.8674    2.5126    0.0000 C   0  0  0  0  0  0  0  0  0  0  0  0
    0.8674    1.5126    0.0000 N   0  0  0  0  0  0  0  0  0  0  0  0
    0.0000    1.0051    0.0000 C   0  0  0  0  0  0  0  0  0  0  0  0
    0.0000    0.0000    0.0000 C   0  0  0  0  0  0  0  0  0  0  0  0
    0.8674   -0.4976    0.0000 N   0  0  0  0  0  0  0  0  0  0  0  0
    1.7348    0.0000    0.0000 C   0  0  0  0  0  0  0  0  0  0  0  0
    1.7348    1.0051    0.0000 C   0  0  0  0  0  0  0  0  0  0  0  0
    0.8674   -1.4976    0.0000 C   0  0  0  0  0  0  0  0  0  0  0  0
    0.0014   -1.9976    0.0000 O   0  0  0  0  0  0  0  0  0  0  0  0
    1.7334   -1.9976    0.0000 C   0  0  0  0  0  0  0  0  0  0  0  0
    2.6025   -1.4924    0.0000 C   0  0  0  0  0  0  0  0  0  0  0  0
    3.4685   -1.9924    0.0000 C   0  0  0  0  0  0  0  0  0  0  0  0
    3.4744   -2.9924    0.0000 C   0  0  0  0  0  0  0  0  0  0  0  0
    2.6054   -3.4976    0.0000 C   0  0  0  0  0  0  0  0  0  0  0  0
    1.7305   -3.0027    0.0000 C   0  0  0  0  0  0  0  0  0  0  0  0
  1  2  1  0  0  0  0
  2  3  1  6  0  0  0
  2  4  1  0  0  0  0
  4  5  1  0  0  0  0
  5  6  1  0  0  0  0
  6 11  2  0  0  0  0
  6  7  1  0  0  0  0
  7  8  2  0  0  0  0
  8  9  1  0  0  0  0
  9 10  2  0  0  0  0
 10 11  1  0  0  0  0
 11 12  1  0  0  0  0
 12 13  2  0  0  0  0
 12 14  1  0  0  0  0
 14 15  1  0  0  0  0
 15 16  1  0  0  0  0
 16 21  2  0  0  0  0
 16 17  1  0  0  0  0
 17 18  2  0  0  0  0
 18 19  1  0  0  0  0
 19 20  2  0  0  0  0
 20 21  1  0  0  0  0
  2 22  1  0  0  0  0
 22 23  1  0  0  0  0
 23 28  1  0  0  0  0
 23 24  1  0  0  0  0
 24 25  1  0  0  0  0
 25 26  1  0  0  0  0
 26 27  1  0  0  0  0
 27 28  1  0  0  0  0
 26 29  1  0  0  0  0
 29 30  2  0  0  0  0
 29 31  1  0  0  0  0
 31 36  2  0  0  0  0
 31 32  1  0  0  0  0
 32 33  2  0  0  0  0
 33 34  1  0  0  0  0
 34 35  2  0  0  0  0
 35 36  1  0  0  0  0
M  END
> <ID>
1591154

$$$$
1591155
  -OEChem-05171416412D

 21 22  0     1  0  0  0  0  0999 V2000
    6.0666    6.5055    0.0000 C   0  0  0  0  0  0  0  0  0  0  0  0
    5.2027    7.0093    0.0000 C   0  0  0  0  0  0  0  0  0  0  0  0
    5.2072    8.0093    0.0000 O   0  0  0  0  0  0  0  0  0  0  0  0
    4.3345    6.5131    0.0000 C   0  0  0  0  0  0  0  0  0  0  0  0
    4.3331    5.5079    0.0000 C   0  0  0  0  0  0  0  0  0  0  0  0
    3.4649    5.0116    0.0000 C   0  0  0  0  0  0  0  0  0  0  0  0
    2.5981    5.5104    0.0000 C   0  0  0  0  0  0  0  0  0  0  0  0
    1.7321    5.0104    0.0000 O   0  0  0  0  0  0  0  0  0  0  0  0
    1.7321    4.0104    0.0000 C   0  0  0  0  0  0  0  0  0  0  0  0
    0.8660    3.5104    0.0000 C   0  0  2  0  0  0  0  0  0  0  0  0
    1.3660    2.6444    0.0000 H   0  0  0  0  0  0  0  0  0  0  0  0
    0.3660    4.3764    0.0000 O   0  0  0  0  0  0  0  0  0  0  0  0
   -0.0000    3.0104    0.0000 C   0  0  0  0  0  0  0  0  0  0  0  0
   -0.0000    2.0104    0.0000 N   0  0  0  0  0  0  0  0  0  0  0  0
   -0.8675    1.5027    0.0000 C   0  0  0  0  0  0  0  0  0  0  0  0
   -0.8675    0.4975    0.0000 C   0  0  0  0  0  0  0  0  0  0  0  0
    0.0000    0.0000    0.0000 C   0  0  0  0  0  0  0  0  0  0  0  0
    0.8675    0.4975    0.0000 C   0  0  0  0  0  0  0  0  0  0  0  0
    0.8675    1.5027    0.0000 C   0  0  0  0  0  0  0  0  0  0  0  0
    2.5995    6.5156    0.0000 C   0  0  0  0  0  0  0  0  0  0  0  0
    3.4678    7.0220    0.0000 C   0  0  0  0  0  0  0  0  0  0  0  0
  1  2  1  0  0  0  0
  2  3  2  0  0  0  0
  2  4  1  0  0  0  0
  4 21  2  0  0  0  0
  4  5  1  0  0  0  0
  5  6  2  0  0  0  0
  6  7  1  0  0  0  0
  7  8  1  0  0  0  0
  8  9  1  0  0  0  0
  9 10  1  0  0  0  0
 10 11  1  6  0  0  0
 10 12  1  0  0  0  0
 10 13  1  0  0  0  0
 13 14  1  0  0  0  0
 14 19  1  0  0  0  0
 14 15  1  0  0  0  0
 15 16  1  0  0  0  0
 16 17  1  0  0  0  0
 17 18  1  0  0  0  0
 18 19  1  0  0  0  0
  7 20  2  0  0  0  0
 20 21  1  0  0  0  0
M  END
> <ID>
1591155

$$$$
1591156
  -OEChem-05171416412D

 28 30  0     1  0  0  0  0  0999 V2000
    6.9340    6.0077    0.0000 C   0  0  0  0  0  0  0  0  0  0  0  0
    6.0701    6.5115    0.0000 C   0  0  0  0  0  0  0  0  0  0  0  0
    6.0746    7.5115    0.0000 O   0  0  0  0  0  0  0  0  0  0  0  0
    5.2019    6.0153    0.0000 C   0  0  0  0  0  0  0  0  0  0  0  0
    5.2005    5.0101    0.0000 C   0  0  0  0  0  0  0  0  0  0  0  0
    4.3323    4.5138    0.0000 C   0  0  0  0  0  0  0  0  0  0  0  0
    3.4655    5.0126    0.0000 C   0  0  0  0  0  0  0  0  0  0  0  0
    2.5995    4.5126    0.0000 O   0  0  0  0  0  0  0  0  0  0  0  0
    2.5995    3.5126    0.0000 C   0  0  0  0  0  0  0  0  0  0  0  0
    1.7334    3.0126    0.0000 C   0  0  2  0  0  0  0  0  0  0  0  0
    2.2334    2.1466    0.0000 H   0  0  0  0  0  0  0  0  0  0  0  0
    1.2334    3.8786    0.0000 O   0  0  0  0  0  0  0  0  0  0  0  0
    0.8674    2.5126    0.0000 C   0  0  0  0  0  0  0  0  0  0  0  0
    0.8674    1.5126    0.0000 N   0  0  0  0  0  0  0  0  0  0  0  0
    0.0000    1.0051    0.0000 C   0  0  0  0  0  0  0  0  0  0  0  0
    0.0000    0.0000    0.0000 C   0  0  0  0  0  0  0  0  0  0  0  0
    0.8674   -0.4976    0.0000 N   0  0  0  0  0  0  0  0  0  0  0  0
    1.7348    0.0000    0.0000 C   0  0  0  0  0  0  0  0  0  0  0  0
    1.7348    1.0051    0.0000 C   0  0  0  0  0  0  0  0  0  0  0  0
    0.8674   -1.4976    0.0000 C   0  0  0  0  0  0  0  0  0  0  0  0
    1.7394   -1.9976    0.0000 C   0  0  0  0  0  0  0  0  0  0  0  0
    1.7395   -2.9977    0.0000 C   0  0  0  0  0  0  0  0  0  0  0  0
    0.8763   -3.5027    0.0000 C   0  0  0  0  0  0  0  0  0  0  0  0
    0.8807   -4.5027    0.0000 F   0  0  0  0  0  0  0  0  0  0  0  0
    0.0043   -3.0027    0.0000 C   0  0  0  0  0  0  0  0  0  0  0  0
   -0.0046   -1.9976    0.0000 C   0  0  0  0  0  0  0  0  0  0  0  0
    3.4669    6.0178    0.0000 C   0  0  0  0  0  0  0  0  0  0  0  0
    4.3352    6.5242    0.0000 C   0  0  0  0  0  0  0  0  0  0  0  0
  1  2  1  0  0  0  0
  2  3  2  0  0  0  0
  2  4  1  0  0  0  0
  4 28  2  0  0  0  0
  4  5  1  0  0  0  0
  5  6  2  0  0  0  0
  6  7  1  0  0  0  0
  7  8  1  0  0  0  0
  8  9  1  0  0  0  0
  9 10  1  0  0  0  0
 10 11  1  6  0  0  0
 10 12  1  0  0  0  0
 10 13  1  0  0  0  0
 13 14  1  0  0  0  0
 14 19  1  0  0  0  0
 14 15  1  0  0  0  0
 15 16  1  0  0  0  0
 16 17  1  0  0  0  0
 17 18  1  0  0  0  0
 18 19  1  0  0  0  0
 17 20  1  0  0  0  0
 20 26  2  0  0  0  0
 20 21  1  0  0  0  0
 21 22  2  0  0  0  0
 22 23  1  0  0  0  0
 23 24  1  0  0  0  0
 23 25  2  0  0  0  0
 25 26  1  0  0  0  0
  7 27  2  0  0  0  0
 27 28  1  0  0  0  0
M  END
> <ID>
1591156

$$$$
1591157
  -OEChem-05171416412D

 21 22  0     1  0  0  0  0  0999 V2000
   -5.1991   -4.9926    0.0000 C   0  0  0  0  0  0  0  0  0  0  0  0
   -4.3352   -5.4964    0.0000 C   0  0  0  0  0  0  0  0  0  0  0  0
   -4.3397   -6.4964    0.0000 O   0  0  0  0  0  0  0  0  0  0  0  0
   -3.4670   -5.0002    0.0000 C   0  0  0  0  0  0  0  0  0  0  0  0
   -3.4656   -3.9950    0.0000 C   0  0  0  0  0  0  0  0  0  0  0  0
   -2.5974   -3.4987    0.0000 C   0  0  0  0  0  0  0  0  0  0  0  0
   -1.7306   -3.9975    0.0000 C   0  0  0  0  0  0  0  0  0  0  0  0
   -0.8646   -3.4975    0.0000 O   0  0  0  0  0  0  0  0  0  0  0  0
   -0.8646   -2.4975    0.0000 C   0  0  0  0  0  0  0  0  0  0  0  0
    0.0015   -1.9975    0.0000 C   0  0  2  0  0  0  0  0  0  0  0  0
   -0.4985   -1.1315    0.0000 H   0  0  0  0  0  0  0  0  0  0  0  0
    0.5015   -2.8635    0.0000 O   0  0  0  0  0  0  0  0  0  0  0  0
    0.8675   -1.4975    0.0000 C   0  0  0  0  0  0  0  0  0  0  0  0
    0.8675   -0.4975    0.0000 N   0  0  0  0  0  0  0  0  0  0  0  0
    0.0000    0.0000    0.0000 C   0  0  0  0  0  0  0  0  0  0  0  0
   -0.0000    1.0052    0.0000 C   0  0  0  0  0  0  0  0  0  0  0  0
    0.8675    1.5129    0.0000 O   0  0  0  0  0  0  0  0  0  0  0  0
    1.7350    1.0052    0.0000 C   0  0  0  0  0  0  0  0  0  0  0  0
    1.7350    0.0000    0.0000 C   0  0  0  0  0  0  0  0  0  0  0  0
   -1.7320   -5.0027    0.0000 C   0  0  0  0  0  0  0  0  0  0  0  0
   -2.6003   -5.5091    0.0000 C   0  0  0  0  0  0  0  0  0  0  0  0
  1  2  1  0  0  0  0
  2  3  2  0  0  0  0
  2  4  1  0  0  0  0
  4 21  2  0  0  0  0
  4  5  1  0  0  0  0
  5  6  2  0  0  0  0
  6  7  1  0  0  0  0
  7  8  1  0  0  0  0
  8  9  1  0  0  0  0
  9 10  1  0  0  0  0
 10 11  1  6  0  0  0
 10 12  1  0  0  0  0
 10 13  1  0  0  0  0
 13 14  1  0  0  0  0
 14 19  1  0  0  0  0
 14 15  1  0  0  0  0
 15 16  1  0  0  0  0
 16 17  1  0  0  0  0
 17 18  1  0  0  0  0
 18 19  1  0  0  0  0
  7 20  2  0  0  0  0
 20 21  1  0  0  0  0
M  END
> <ID>
1591157

$$$$
1591158
  -OEChem-05171416412D

 42 45  0     1  0  0  0  0  0999 V2000
   -1.7313   -5.0027    0.0000 C   0  0  0  0  0  0  0  0  0  0  0  0
   -0.8654   -5.5029    0.0000 N   0  0  3  0  0  0  0  0  0  0  0  0
    0.0007   -5.0032    0.0000 C   0  0  0  0  0  0  0  0  0  0  0  0
    0.0011   -4.0032    0.0000 C   0  0  0  0  0  0  0  0  0  0  0  0
    0.8673   -3.5035    0.0000 N   0  0  3  0  0  0  0  0  0  0  0  0
    1.7331   -4.0038    0.0000 C   0  0  0  0  0  0  0  0  0  0  0  0
    0.8676   -2.5035    0.0000 S   0  0  0  0  0  0  0  0  0  0  0  0
   -0.1324   -2.5032    0.0000 O   0  0  0  0  0  0  0  0  0  0  0  0
    1.8676   -2.5038    0.0000 O   0  0  0  0  0  0  0  0  0  0  0  0
    0.8679   -1.5035    0.0000 C   0  0  0  0  0  0  0  0  0  0  0  0
    0.0000   -1.0057    0.0000 C   0  0  0  0  0  0  0  0  0  0  0  0
    0.0000    0.0000    0.0000 C   0  0  0  0  0  0  0  0  0  0  0  0
    0.8679    0.5078    0.0000 C   0  0  0  0  0  0  0  0  0  0  0  0
    1.7358    0.0000    0.0000 C   0  0  0  0  0  0  0  0  0  0  0  0
    2.6012    0.5067    0.0000 C   0  0  0  0  0  0  0  0  0  0  0  0
    3.4735    0.0022    0.0000 C   0  0  0  0  0  0  0  0  0  0  0  0
    3.4748   -1.0035    0.0000 C   0  0  0  0  0  0  0  0  0  0  0  0
    2.6038   -1.5046    0.0000 C   0  0  0  0  0  0  0  0  0  0  0  0
    1.7371   -1.0057    0.0000 C   0  0  0  0  0  0  0  0  0  0  0  0
    2.5985    1.5067    0.0000 N   0  0  0  0  0  0  0  0  0  0  0  0
    1.7312    2.0044    0.0000 C   0  0  0  0  0  0  0  0  0  0  0  0
    3.4632    2.0090    0.0000 C   0  0  0  0  0  0  0  0  0  0  0  0
   -0.8658   -6.5029    0.0000 C   0  0  0  0  0  0  0  0  0  0  0  0
   -1.7320   -7.0027    0.0000 C   0  0  1  0  0  0  0  0  0  0  0  0
   -1.2322   -7.8688    0.0000 H   0  0  0  0  0  0  0  0  0  0  0  0
   -2.2317   -6.1365    0.0000 O   0  0  0  0  0  0  0  0  0  0  0  0
   -2.5981   -7.5024    0.0000 C   0  0  0  0  0  0  0  0  0  0  0  0
   -2.5985   -8.5024    0.0000 O   0  0  0  0  0  0  0  0  0  0  0  0
   -3.4646   -9.0021    0.0000 C   0  0  0  0  0  0  0  0  0  0  0  0
   -3.4664  -10.0021    0.0000 C   0  0  0  0  0  0  0  0  0  0  0  0
   -4.3305  -10.5056    0.0000 C   0  0  0  0  0  0  0  0  0  0  0  0
   -5.2015  -10.0040    0.0000 C   0  0  0  0  0  0  0  0  0  0  0  0
   -5.2086   -8.9989    0.0000 C   0  0  0  0  0  0  0  0  0  0  0  0
   -4.3357   -8.5005    0.0000 C   0  0  0  0  0  0  0  0  0  0  0  0
   -4.3339   -7.5005    0.0000 C   0  0  0  0  0  0  0  0  0  0  0  0
   -3.4670   -7.0021    0.0000 O   0  0  0  0  0  0  0  0  0  0  0  0
   -5.1990   -6.9989    0.0000 C   0  0  0  0  0  0  0  0  0  0  0  0
   -6.0690   -7.5025    0.0000 C   0  0  0  0  0  0  0  0  0  0  0  0
   -6.9342   -7.0009    0.0000 C   0  0  0  0  0  0  0  0  0  0  0  0
   -6.9382   -6.0009    0.0000 C   0  0  0  0  0  0  0  0  0  0  0  0
   -6.0682   -5.4973    0.0000 C   0  0  0  0  0  0  0  0  0  0  0  0
   -5.1942   -5.9938    0.0000 C   0  0  0  0  0  0  0  0  0  0  0  0
  1  2  1  0  0  0  0
  2  3  1  0  0  0  0
  3  4  1  0  0  0  0
  4  5  1  0  0  0  0
  5  6  1  0  0  0  0
  5  7  1  0  0  0  0
  7  8  2  0  0  0  0
  7  9  2  0  0  0  0
  7 10  1  0  0  0  0
 10 19  2  0  0  0  0
 10 11  1  0  0  0  0
 11 12  2  0  0  0  0
 12 13  1  0  0  0  0
 13 14  2  0  0  0  0
 14 19  1  0  0  0  0
 14 15  1  0  0  0  0
 15 16  2  0  0  0  0
 16 17  1  0  0  0  0
 17 18  2  0  0  0  0
 18 19  1  0  0  0  0
 15 20  1  0  0  0  0
 20 21  1  0  0  0  0
 20 22  1  0  0  0  0
  2 23  1  0  0  0  0
 23 24  1  0  0  0  0
 24 25  1  1  0  0  0
 24 26  1  0  0  0  0
 24 27  1  0  0  0  0
 27 28  1  0  0  0  0
 28 29  1  0  0  0  0
 29 34  2  0  0  0  0
 29 30  1  0  0  0  0
 30 31  2  0  0  0  0
 31 32  1  0  0  0  0
 32 33  2  0  0  0  0
 33 34  1  0  0  0  0
 34 35  1  0  0  0  0
 35 36  2  0  0  0  0
 35 37  1  0  0  0  0
 37 42  2  0  0  0  0
 37 38  1  0  0  0  0
 38 39  2  0  0  0  0
 39 40  1  0  0  0  0
 40 41  2  0  0  0  0
 41 42  1  0  0  0  0
M  END
> <ID>
1591158

$$$$
1591159
  -OEChem-05171416412D

 25 26  0     1  0  0  0  0  0999 V2000
   -6.0571   -5.5063    0.0000 C   0  0  0  0  0  0  0  0  0  0  0  0
   -5.1918   -5.0050    0.0000 C   0  0  0  0  0  0  0  0  0  0  0  0
   -5.1933   -4.0050    0.0000 C   0  0  0  0  0  0  0  0  0  0  0  0
   -4.3280   -3.5038    0.0000 N   0  0  0  0  0  0  0  0  0  0  0  0
   -4.3294   -2.5038    0.0000 C   0  0  0  0  0  0  0  0  0  0  0  0
   -3.4641   -2.0025    0.0000 C   0  0  1  0  0  0  0  0  0  0  0  0
   -3.9654   -1.1372    0.0000 H   0  0  0  0  0  0  0  0  0  0  0  0
   -2.9629   -2.8678    0.0000 O   0  0  0  0  0  0  0  0  0  0  0  0
   -2.5988   -1.5013    0.0000 C   0  0  0  0  0  0  0  0  0  0  0  0
   -2.6003   -0.5013    0.0000 O   0  0  0  0  0  0  0  0  0  0  0  0
   -1.7350   -0.0000    0.0000 C   0  0  0  0  0  0  0  0  0  0  0  0
   -0.8675   -0.4975    0.0000 C   0  0  0  0  0  0  0  0  0  0  0  0
    0.0000    0.0000    0.0000 C   0  0  0  0  0  0  0  0  0  0  0  0
   -0.0000    1.0052    0.0000 C   0  0  0  0  0  0  0  0  0  0  0  0
    0.8675    1.5026    0.0000 C   0  0  0  0  0  0  0  0  0  0  0  0
   -0.8675    1.5129    0.0000 C   0  0  0  0  0  0  0  0  0  0  0  0
   -1.7350    1.0052    0.0000 C   0  0  0  0  0  0  0  0  0  0  0  0
   -2.6025    1.5026    0.0000 C   0  0  0  0  0  0  0  0  0  0  0  0
   -3.4670    1.0001    0.0000 O   0  0  0  0  0  0  0  0  0  0  0  0
   -2.6054    2.5026    0.0000 C   0  0  0  0  0  0  0  0  0  0  0  0
   -1.7349    3.0052    0.0000 C   0  0  0  0  0  0  0  0  0  0  0  0
   -1.7378    4.0053    0.0000 C   0  0  0  0  0  0  0  0  0  0  0  0
   -2.6024    4.5078    0.0000 C   0  0  0  0  0  0  0  0  0  0  0  0
   -3.4729    4.0052    0.0000 C   0  0  0  0  0  0  0  0  0  0  0  0
   -3.4789    3.0001    0.0000 C   0  0  0  0  0  0  0  0  0  0  0  0
  1  2  1  0  0  0  0
  2  3  1  0  0  0  0
  3  4  1  0  0  0  0
  4  5  1  0  0  0  0
  5  6  1  0  0  0  0
  6  7  1  1  0  0  0
  6  8  1  0  0  0  0
  6  9  1  0  0  0  0
  9 10  1  0  0  0  0
 10 11  1  0  0  0  0
 11 17  2  0  0  0  0
 11 12  1  0  0  0  0
 12 13  2  0  0  0  0
 13 14  1  0  0  0  0
 14 15  1  0  0  0  0
 14 16  2  0  0  0  0
 16 17  1  0  0  0  0
 17 18  1  0  0  0  0
 18 19  2  0  0  0  0
 18 20  1  0  0  0  0
 20 25  2  0  0  0  0
 20 21  1  0  0  0  0
 21 22  2  0  0  0  0
 22 23  1  0  0  0  0
 23 24  2  0  0  0  0
 24 25  1  0  0  0  0
M  END
> <ID>
1591159

$$$$
1591160
  -OEChem-05171416412D

 34 36  0     1  0  0  0  0  0999 V2000
    6.9322    0.7245    0.0000 C   0  0  0  0  0  0  0  0  0  0  0  0
    7.4310   -0.1422    0.0000 C   0  0  0  0  0  0  0  0  0  0  0  0
    8.4310   -0.1437    0.0000 C   0  0  0  0  0  0  0  0  0  0  0  0
    6.9297   -1.0075    0.0000 C   0  0  2  0  0  0  0  0  0  0  0  0
    7.7950   -1.5088    0.0000 H   0  0  0  0  0  0  0  0  0  0  0  0
    6.0644   -0.5063    0.0000 N   0  0  0  0  0  0  0  0  0  0  0  0
    5.1976   -1.0050    0.0000 C   0  0  0  0  0  0  0  0  0  0  0  0
    4.3323   -0.5038    0.0000 C   0  0  1  0  0  0  0  0  0  0  0  0
    3.8311   -1.3691    0.0000 H   0  0  0  0  0  0  0  0  0  0  0  0
    4.8336    0.3615    0.0000 O   0  0  0  0  0  0  0  0  0  0  0  0
    3.4670   -0.0025    0.0000 C   0  0  0  0  0  0  0  0  0  0  0  0
    2.6003   -0.5013    0.0000 O   0  0  0  0  0  0  0  0  0  0  0  0
    1.7350    0.0000    0.0000 C   0  0  0  0  0  0  0  0  0  0  0  0
    0.8675   -0.4975    0.0000 C   0  0  0  0  0  0  0  0  0  0  0  0
    0.0000    0.0000    0.0000 C   0  0  0  0  0  0  0  0  0  0  0  0
   -0.0000    1.0052    0.0000 C   0  0  0  0  0  0  0  0  0  0  0  0
    0.8675    1.5129    0.0000 C   0  0  0  0  0  0  0  0  0  0  0  0
    1.7350    1.0052    0.0000 C   0  0  0  0  0  0  0  0  0  0  0  0
    2.6025    1.5026    0.0000 C   0  0  0  0  0  0  0  0  0  0  0  0
    3.4670    1.0001    0.0000 O   0  0  0  0  0  0  0  0  0  0  0  0
    2.6054    2.5026    0.0000 C   0  0  0  0  0  0  0  0  0  0  0  0
    3.4729    3.0001    0.0000 C   0  0  0  0  0  0  0  0  0  0  0  0
    3.4759    4.0001    0.0000 C   0  0  0  0  0  0  0  0  0  0  0  0
    2.6054    4.5027    0.0000 C   0  0  0  0  0  0  0  0  0  0  0  0
    2.6083    5.5027    0.0000 C   0  0  0  0  0  0  0  0  0  0  0  0
    3.4729    6.0052    0.0000 C   0  0  0  0  0  0  0  0  0  0  0  0
    4.3434    5.5026    0.0000 C   0  0  0  0  0  0  0  0  0  0  0  0
    4.3493    4.4975    0.0000 C   0  0  0  0  0  0  0  0  0  0  0  0
    6.0525   -2.5218    0.0000 C   0  0  0  0  0  0  0  0  0  0  0  0
    6.5564   -3.3916    0.0000 C   0  0  0  0  0  0  0  0  0  0  0  0
    6.0552   -4.2569    0.0000 C   0  0  0  0  0  0  0  0  0  0  0  0
    5.0552   -4.2613    0.0000 C   0  0  0  0  0  0  0  0  0  0  0  0
    4.5512   -3.3916    0.0000 C   0  0  0  0  0  0  0  0  0  0  0  0
    5.0474   -2.5174    0.0000 C   0  0  0  0  0  0  0  0  0  0  0  0
  1  2  1  0  0  0  0
  2  3  1  0  0  0  0
  2  4  1  0  0  0  0
  4  5  1  6  0  0  0
  4  6  1  0  0  0  0
  6  7  1  0  0  0  0
  7  8  1  0  0  0  0
  8  9  1  1  0  0  0
  8 10  1  0  0  0  0
  8 11  1  0  0  0  0
 11 12  1  0  0  0  0
 12 13  1  0  0  0  0
 13 18  2  0  0  0  0
 13 14  1  0  0  0  0
 14 15  2  0  0  0  0
 15 16  1  0  0  0  0
 16 17  2  0  0  0  0
 17 18  1  0  0  0  0
 18 19  1  0  0  0  0
 19 20  2  0  0  0  0
 19 21  1  0  0  0  0
 21 22  1  0  0  0  0
 22 23  1  0  0  0  0
 23 28  2  0  0  0  0
 23 24  1  0  0  0  0
 24 25  2  0  0  0  0
 25 26  1  0  0  0  0
 26 27  2  0  0  0  0
 27 28  1  0  0  0  0
  4 29  1  0  0  0  0
 29 34  2  0  0  0  0
 29 30  1  0  0  0  0
 30 31  2  0  0  0  0
 31 32  1  0  0  0  0
 32 33  2  0  0  0  0
 33 34  1  0  0  0  0
M  END
> <ID>
1591160

$$$$
1591161
  -OEChem-05171416412D

 37 40  0     1  0  0  0  0  0999 V2000
    2.8624   -0.2352    0.0000 O   0  0  0  0  0  0  0  0  0  0  0  0
    3.7299    0.2622    0.0000 C   0  0  2  0  0  0  0  0  0  0  0  0
    4.5974    0.7596    0.0000 H   0  0  0  0  0  0  0  0  0  0  0  0
    3.2324    1.1297    0.0000 C   0  0  0  0  0  0  0  0  0  0  0  0
    2.2324    1.1326    0.0000 N   0  0  0  0  0  0  0  0  0  0  0  0
    1.7350    2.0001    0.0000 C   0  0  2  0  0  0  0  0  0  0  0  0
    1.2376    2.8676    0.0000 H   0  0  0  0  0  0  0  0  0  0  0  0
    0.8675    1.5027    0.0000 C   0  0  0  0  0  0  0  0  0  0  0  0
    0.8675    0.4975    0.0000 C   0  0  0  0  0  0  0  0  0  0  0  0
    0.0000    0.0000    0.0000 C   0  0  0  0  0  0  0  0  0  0  0  0
   -0.8675    0.4975    0.0000 C   0  0  0  0  0  0  0  0  0  0  0  0
   -0.8675    1.5027    0.0000 C   0  0  0  0  0  0  0  0  0  0  0  0
    0.0000    2.0104    0.0000 C   0  0  0  0  0  0  0  0  0  0  0  0
    3.2531    2.8707    0.0000 C   0  0  0  0  0  0  0  0  0  0  0  0
    3.2531    3.8759    0.0000 C   0  0  0  0  0  0  0  0  0  0  0  0
    4.1206    4.3734    0.0000 C   0  0  0  0  0  0  0  0  0  0  0  0
    4.9881    3.8759    0.0000 C   0  0  0  0  0  0  0  0  0  0  0  0
    4.9881    2.8707    0.0000 C   0  0  0  0  0  0  0  0  0  0  0  0
    4.1206    2.3630    0.0000 C   0  0  0  0  0  0  0  0  0  0  0  0
    4.2273   -0.6053    0.0000 C   0  0  0  0  0  0  0  0  0  0  0  0
    5.2273   -0.6082    0.0000 O   0  0  0  0  0  0  0  0  0  0  0  0
    5.7248   -1.4757    0.0000 C   0  0  0  0  0  0  0  0  0  0  0  0
    6.7248   -1.4801    0.0000 C   0  0  0  0  0  0  0  0  0  0  0  0
    7.2260   -2.3455    0.0000 C   0  0  0  0  0  0  0  0  0  0  0  0
    6.7221   -3.2153    0.0000 C   0  0  0  0  0  0  0  0  0  0  0  0
    5.7170   -3.2197    0.0000 C   0  0  0  0  0  0  0  0  0  0  0  0
    5.2209   -2.3455    0.0000 C   0  0  0  0  0  0  0  0  0  0  0  0
    4.2209   -2.3411    0.0000 C   0  0  0  0  0  0  0  0  0  0  0  0
    3.7247   -1.4728    0.0000 O   0  0  0  0  0  0  0  0  0  0  0  0
    3.7170   -3.2049    0.0000 C   0  0  0  0  0  0  0  0  0  0  0  0
    2.7170   -3.2004    0.0000 C   0  0  0  0  0  0  0  0  0  0  0  0
    2.2132   -4.0642    0.0000 C   0  0  0  0  0  0  0  0  0  0  0  0
    2.7145   -4.9355    0.0000 C   0  0  0  0  0  0  0  0  0  0  0  0
    2.2106   -5.7993    0.0000 C   0  0  0  0  0  0  0  0  0  0  0  0
    1.2106   -5.8007    0.0000 C   0  0  0  0  0  0  0  0  0  0  0  0
    0.7093   -4.9294    0.0000 C   0  0  0  0  0  0  0  0  0  0  0  0
    1.2081   -4.0568    0.0000 C   0  0  0  0  0  0  0  0  0  0  0  0
  1  2  1  0  0  0  0
  2  3  1  1  0  0  0
  2  4  1  0  0  0  0
  4  5  1  0  0  0  0
  5  6  1  0  0  0  0
  6  7  1  1  0  0  0
  6  8  1  0  0  0  0
  8 13  1  0  0  0  0
  8  9  1  0  0  0  0
  9 10  1  0  0  0  0
 10 11  1  0  0  0  0
 11 12  1  0  0  0  0
 12 13  1  0  0  0  0
  6 14  1  0  0  0  0
 14 19  2  0  0  0  0
 14 15  1  0  0  0  0
 15 16  2  0  0  0  0
 16 17  1  0  0  0  0
 17 18  2  0  0  0  0
 18 19  1  0  0  0  0
  2 20  1  0  0  0  0
 20 21  1  0  0  0  0
 21 22  1  0  0  0  0
 22 27  2  0  0  0  0
 22 23  1  0  0  0  0
 23 24  2  0  0  0  0
 24 25  1  0  0  0  0
 25 26  2  0  0  0  0
 26 27  1  0  0  0  0
 27 28  1  0  0  0  0
 28 29  2  0  0  0  0
 28 30  1  0  0  0  0
 30 31  1  0  0  0  0
 31 32  1  0  0  0  0
 32 37  2  0  0  0  0
 32 33  1  0  0  0  0
 33 34  2  0  0  0  0
 34 35  1  0  0  0  0
 35 36  2  0  0  0  0
 36 37  1  0  0  0  0
M  END
> <ID>
1591161

$$$$
1591162
  -OEChem-05171416412D

 37 40  0     1  0  0  0  0  0999 V2000
   -0.8699    2.5113    0.0000 C   0  0  0  0  0  0  0  0  0  0  0  0
   -0.0046    3.0126    0.0000 C   0  0  0  0  0  0  0  0  0  0  0  0
   -0.0047    4.0127    0.0000 C   0  0  0  0  0  0  0  0  0  0  0  0
    0.8585    4.5177    0.0000 C   0  0  0  0  0  0  0  0  0  0  0  0
    1.7305    4.0177    0.0000 C   0  0  0  0  0  0  0  0  0  0  0  0
    1.7394    3.0126    0.0000 C   0  0  0  0  0  0  0  0  0  0  0  0
    0.8674    2.5126    0.0000 C   0  0  0  0  0  0  0  0  0  0  0  0
    0.8674    1.5126    0.0000 N   0  0  0  0  0  0  0  0  0  0  0  0
    0.0000    1.0051    0.0000 C   0  0  0  0  0  0  0  0  0  0  0  0
    0.0000    0.0000    0.0000 C   0  0  0  0  0  0  0  0  0  0  0  0
    0.8674   -0.4976    0.0000 N   0  0  0  0  0  0  0  0  0  0  0  0
    0.8674   -1.4976    0.0000 C   0  0  0  0  0  0  0  0  0  0  0  0
    1.7334   -1.9976    0.0000 C   0  0  1  0  0  0  0  0  0  0  0  0
    1.2334   -2.8636    0.0000 H   0  0  0  0  0  0  0  0  0  0  0  0
    2.2334   -1.1316    0.0000 O   0  0  0  0  0  0  0  0  0  0  0  0
    2.5995   -2.4976    0.0000 C   0  0  0  0  0  0  0  0  0  0  0  0
    2.5995   -3.4976    0.0000 O   0  0  0  0  0  0  0  0  0  0  0  0
    3.4655   -3.9976    0.0000 C   0  0  0  0  0  0  0  0  0  0  0  0
    4.3323   -3.4988    0.0000 C   0  0  0  0  0  0  0  0  0  0  0  0
    5.2005   -3.9951    0.0000 C   0  0  0  0  0  0  0  0  0  0  0  0
    6.0650   -3.4926    0.0000 Cl  0  0  0  0  0  0  0  0  0  0  0  0
    5.2019   -5.0003    0.0000 C   0  0  0  0  0  0  0  0  0  0  0  0
    6.0702   -5.4965    0.0000 Cl  0  0  0  0  0  0  0  0  0  0  0  0
    4.3352   -5.5092    0.0000 C   0  0  0  0  0  0  0  0  0  0  0  0
    3.4669   -5.0028    0.0000 C   0  0  0  0  0  0  0  0  0  0  0  0
    2.6002   -5.5015    0.0000 C   0  0  0  0  0  0  0  0  0  0  0  0
    2.5987   -6.5015    0.0000 O   0  0  0  0  0  0  0  0  0  0  0  0
    1.7349   -5.0002    0.0000 C   0  0  0  0  0  0  0  0  0  0  0  0
    0.8681   -5.4989    0.0000 C   0  0  0  0  0  0  0  0  0  0  0  0
    0.0028   -4.9976    0.0000 C   0  0  0  0  0  0  0  0  0  0  0  0
    0.0073   -3.9924    0.0000 C   0  0  0  0  0  0  0  0  0  0  0  0
   -0.8580   -3.4911    0.0000 C   0  0  0  0  0  0  0  0  0  0  0  0
   -1.7277   -3.9847    0.0000 C   0  0  0  0  0  0  0  0  0  0  0  0
   -1.7321   -4.9899    0.0000 C   0  0  0  0  0  0  0  0  0  0  0  0
   -0.8669   -5.5014    0.0000 C   0  0  0  0  0  0  0  0  0  0  0  0
    1.7348    0.0000    0.0000 C   0  0  0  0  0  0  0  0  0  0  0  0
    1.7348    1.0051    0.0000 C   0  0  0  0  0  0  0  0  0  0  0  0
  1  2  1  0  0  0  0
  2  7  2  0  0  0  0
  2  3  1  0  0  0  0
  3  4  2  0  0  0  0
  4  5  1  0  0  0  0
  5  6  2  0  0  0  0
  6  7  1  0  0  0  0
  7  8  1  0  0  0  0
  8 37  1  0  0  0  0
  8  9  1  0  0  0  0
  9 10  1  0  0  0  0
 10 11  1  0  0  0  0
 11 12  1  0  0  0  0
 12 13  1  0  0  0  0
 13 14  1  6  0  0  0
 13 15  1  0  0  0  0
 13 16  1  0  0  0  0
 16 17  1  0  0  0  0
 17 18  1  0  0  0  0
 18 25  2  0  0  0  0
 18 19  1  0  0  0  0
 19 20  2  0  0  0  0
 20 21  1  0  0  0  0
 20 22  1  0  0  0  0
 22 23  1  0  0  0  0
 22 24  2  0  0  0  0
 24 25  1  0  0  0  0
 25 26  1  0  0  0  0
 26 27  2  0  0  0  0
 26 28  1  0  0  0  0
 28 29  1  0  0  0  0
 29 30  1  0  0  0  0
 30 35  2  0  0  0  0
 30 31  1  0  0  0  0
 31 32  2  0  0  0  0
 32 33  1  0  0  0  0
 33 34  2  0  0  0  0
 34 35  1  0  0  0  0
 11 36  1  0  0  0  0
 36 37  1  0  0  0  0
M  END
> <ID>
1591162

$$$$
1591163
  -OEChem-05171416412D

 22 24  0     1  0  0  0  0  0999 V2000
    0.3660    4.3764    0.0000 O   0  0  0  0  0  0  0  0  0  0  0  0
    0.8660    3.5104    0.0000 C   0  0  1  0  0  0  0  0  0  0  0  0
    1.3660    2.6444    0.0000 H   0  0  0  0  0  0  0  0  0  0  0  0
    1.7321    4.0104    0.0000 C   0  0  0  0  0  0  0  0  0  0  0  0
    1.7321    5.0104    0.0000 O   0  0  0  0  0  0  0  0  0  0  0  0
    2.5981    5.5104    0.0000 C   0  0  0  0  0  0  0  0  0  0  0  0
    3.4719    5.0126    0.0000 C   0  0  0  0  0  0  0  0  0  0  0  0
    4.3430    5.5155    0.0000 C   0  0  0  0  0  0  0  0  0  0  0  0
    4.3402    6.5162    0.0000 C   0  0  0  0  0  0  0  0  0  0  0  0
    3.4761    7.0196    0.0000 C   0  0  0  0  0  0  0  0  0  0  0  0
    3.2668    8.0047    0.0000 C   0  0  0  0  0  0  0  0  0  0  0  0
    2.2652    8.1100    0.0000 C   0  0  0  0  0  0  0  0  0  0  0  0
    1.8557    7.1900    0.0000 C   0  0  0  0  0  0  0  0  0  0  0  0
    0.8775    6.9822    0.0000 O   0  0  0  0  0  0  0  0  0  0  0  0
    2.6039    6.5161    0.0000 C   0  0  0  0  0  0  0  0  0  0  0  0
   -0.0000    3.0104    0.0000 C   0  0  0  0  0  0  0  0  0  0  0  0
   -0.0000    2.0104    0.0000 N   0  0  0  0  0  0  0  0  0  0  0  0
   -0.8675    1.5027    0.0000 C   0  0  0  0  0  0  0  0  0  0  0  0
   -0.8675    0.4975    0.0000 C   0  0  0  0  0  0  0  0  0  0  0  0
    0.0000    0.0000    0.0000 C   0  0  0  0  0  0  0  0  0  0  0  0
    0.8675    0.4975    0.0000 C   0  0  0  0  0  0  0  0  0  0  0  0
    0.8675    1.5027    0.0000 C   0  0  0  0  0  0  0  0  0  0  0  0
  1  2  1  0  0  0  0
  2  3  1  6  0  0  0
  2  4  1  0  0  0  0
  4  5  1  0  0  0  0
  5  6  1  0  0  0  0
  6 15  2  0  0  0  0
  6  7  1  0  0  0  0
  7  8  2  0  0  0  0
  8  9  1  0  0  0  0
  9 10  2  0  0  0  0
 10 15  1  0  0  0  0
 10 11  1  0  0  0  0
 11 12  1  0  0  0  0
 12 13  1  0  0  0  0
 13 14  2  0  0  0  0
 13 15  1  0  0  0  0
  2 16  1  0  0  0  0
 16 17  1  0  0  0  0
 17 22  1  0  0  0  0
 17 18  1  0  0  0  0
 18 19  1  0  0  0  0
 19 20  1  0  0  0  0
 20 21  1  0  0  0  0
 21 22  1  0  0  0  0
M  END
> <ID>
1591163

$$$$
1591164
  -OEChem-05171416412D

 35 37  0     1  0  0  0  0  0999 V2000
    7.9322    0.7231    0.0000 C   0  0  0  0  0  0  0  0  0  0  0  0
    7.4310   -0.1422    0.0000 C   0  0  0  0  0  0  0  0  0  0  0  0
    8.2963   -0.6435    0.0000 C   0  0  0  0  0  0  0  0  0  0  0  0
    6.5657    0.3590    0.0000 C   0  0  0  0  0  0  0  0  0  0  0  0
    6.9297   -1.0075    0.0000 C   0  0  1  0  0  0  0  0  0  0  0  0
    7.7950   -1.5088    0.0000 H   0  0  0  0  0  0  0  0  0  0  0  0
    6.0644   -0.5063    0.0000 N   0  0  0  0  0  0  0  0  0  0  0  0
    5.1976   -1.0050    0.0000 C   0  0  0  0  0  0  0  0  0  0  0  0
    4.3323   -0.5038    0.0000 C   0  0  1  0  0  0  0  0  0  0  0  0
    3.8311   -1.3691    0.0000 H   0  0  0  0  0  0  0  0  0  0  0  0
    4.8336    0.3615    0.0000 O   0  0  0  0  0  0  0  0  0  0  0  0
    3.4670   -0.0025    0.0000 C   0  0  0  0  0  0  0  0  0  0  0  0
    2.6003   -0.5013    0.0000 O   0  0  0  0  0  0  0  0  0  0  0  0
    1.7350    0.0000    0.0000 C   0  0  0  0  0  0  0  0  0  0  0  0
    0.8675   -0.4975    0.0000 C   0  0  0  0  0  0  0  0  0  0  0  0
    0.0000    0.0000    0.0000 C   0  0  0  0  0  0  0  0  0  0  0  0
   -0.0000    1.0052    0.0000 C   0  0  0  0  0  0  0  0  0  0  0  0
    0.8675    1.5129    0.0000 C   0  0  0  0  0  0  0  0  0  0  0  0
    1.7350    1.0052    0.0000 C   0  0  0  0  0  0  0  0  0  0  0  0
    2.6025    1.5026    0.0000 C   0  0  0  0  0  0  0  0  0  0  0  0
    3.4670    1.0001    0.0000 O   0  0  0  0  0  0  0  0  0  0  0  0
    2.6054    2.5026    0.0000 C   0  0  0  0  0  0  0  0  0  0  0  0
    3.4729    3.0001    0.0000 C   0  0  0  0  0  0  0  0  0  0  0  0
    3.4759    4.0001    0.0000 C   0  0  0  0  0  0  0  0  0  0  0  0
    2.6054    4.5027    0.0000 C   0  0  0  0  0  0  0  0  0  0  0  0
    2.6083    5.5027    0.0000 C   0  0  0  0  0  0  0  0  0  0  0  0
    3.4729    6.0052    0.0000 C   0  0  0  0  0  0  0  0  0  0  0  0
    4.3434    5.5026    0.0000 C   0  0  0  0  0  0  0  0  0  0  0  0
    4.3493    4.4975    0.0000 C   0  0  0  0  0  0  0  0  0  0  0  0
    6.0525   -2.5218    0.0000 C   0  0  0  0  0  0  0  0  0  0  0  0
    6.5564   -3.3916    0.0000 C   0  0  0  0  0  0  0  0  0  0  0  0
    6.0552   -4.2569    0.0000 C   0  0  0  0  0  0  0  0  0  0  0  0
    5.0552   -4.2613    0.0000 C   0  0  0  0  0  0  0  0  0  0  0  0
    4.5512   -3.3916    0.0000 C   0  0  0  0  0  0  0  0  0  0  0  0
    5.0474   -2.5174    0.0000 C   0  0  0  0  0  0  0  0  0  0  0  0
  1  2  1  0  0  0  0
  2  3  1  0  0  0  0
  2  4  1  0  0  0  0
  2  5  1  0  0  0  0
  5  6  1  1  0  0  0
  5  7  1  0  0  0  0
  7  8  1  0  0  0  0
  8  9  1  0  0  0  0
  9 10  1  1  0  0  0
  9 11  1  0  0  0  0
  9 12  1  0  0  0  0
 12 13  1  0  0  0  0
 13 14  1  0  0  0  0
 14 19  2  0  0  0  0
 14 15  1  0  0  0  0
 15 16  2  0  0  0  0
 16 17  1  0  0  0  0
 17 18  2  0  0  0  0
 18 19  1  0  0  0  0
 19 20  1  0  0  0  0
 20 21  2  0  0  0  0
 20 22  1  0  0  0  0
 22 23  1  0  0  0  0
 23 24  1  0  0  0  0
 24 29  2  0  0  0  0
 24 25  1  0  0  0  0
 25 26  2  0  0  0  0
 26 27  1  0  0  0  0
 27 28  2  0  0  0  0
 28 29  1  0  0  0  0
  5 30  1  0  0  0  0
 30 35  2  0  0  0  0
 30 31  1  0  0  0  0
 31 32  2  0  0  0  0
 32 33  1  0  0  0  0
 33 34  2  0  0  0  0
 34 35  1  0  0  0  0
M  END
> <ID>
1591164

$$$$
1591165
  -OEChem-05171416412D

 22 24  0     1  0  0  0  0  0999 V2000
    0.3660    4.3764    0.0000 O   0  0  0  0  0  0  0  0  0  0  0  0
    0.8660    3.5104    0.0000 C   0  0  1  0  0  0  0  0  0  0  0  0
    1.3660    2.6444    0.0000 H   0  0  0  0  0  0  0  0  0  0  0  0
    1.7321    4.0104    0.0000 C   0  0  0  0  0  0  0  0  0  0  0  0
    1.7321    5.0104    0.0000 O   0  0  0  0  0  0  0  0  0  0  0  0
    2.5981    5.5104    0.0000 C   0  0  0  0  0  0  0  0  0  0  0  0
    3.4719    5.0126    0.0000 C   0  0  0  0  0  0  0  0  0  0  0  0
    4.3430    5.5155    0.0000 C   0  0  0  0  0  0  0  0  0  0  0  0
    4.3402    6.5162    0.0000 C   0  0  0  0  0  0  0  0  0  0  0  0
    3.4761    7.0196    0.0000 C   0  0  0  0  0  0  0  0  0  0  0  0
    3.2668    8.0047    0.0000 C   0  0  0  0  0  0  0  0  0  0  0  0
    3.9360    8.7479    0.0000 O   0  0  0  0  0  0  0  0  0  0  0  0
    2.2652    8.1100    0.0000 C   0  0  0  0  0  0  0  0  0  0  0  0
    1.8557    7.1900    0.0000 C   0  0  0  0  0  0  0  0  0  0  0  0
    2.6039    6.5161    0.0000 C   0  0  0  0  0  0  0  0  0  0  0  0
   -0.0000    3.0104    0.0000 C   0  0  0  0  0  0  0  0  0  0  0  0
   -0.0000    2.0104    0.0000 N   0  0  0  0  0  0  0  0  0  0  0  0
   -0.8675    1.5027    0.0000 C   0  0  0  0  0  0  0  0  0  0  0  0
   -0.8675    0.4975    0.0000 C   0  0  0  0  0  0  0  0  0  0  0  0
    0.0000    0.0000    0.0000 C   0  0  0  0  0  0  0  0  0  0  0  0
    0.8675    0.4975    0.0000 C   0  0  0  0  0  0  0  0  0  0  0  0
    0.8675    1.5027    0.0000 C   0  0  0  0  0  0  0  0  0  0  0  0
  1  2  1  0  0  0  0
  2  3  1  6  0  0  0
  2  4  1  0  0  0  0
  4  5  1  0  0  0  0
  5  6  1  0  0  0  0
  6 15  2  0  0  0  0
  6  7  1  0  0  0  0
  7  8  2  0  0  0  0
  8  9  1  0  0  0  0
  9 10  2  0  0  0  0
 10 15  1  0  0  0  0
 10 11  1  0  0  0  0
 11 12  2  0  0  0  0
 11 13  1  0  0  0  0
 13 14  1  0  0  0  0
 14 15  1  0  0  0  0
  2 16  1  0  0  0  0
 16 17  1  0  0  0  0
 17 22  1  0  0  0  0
 17 18  1  0  0  0  0
 18 19  1  0  0  0  0
 19 20  1  0  0  0  0
 20 21  1  0  0  0  0
 21 22  1  0  0  0  0
M  END
> <ID>
1591165

$$$$
1591166
  -OEChem-05171416412D

 30 33  0     1  0  0  0  0  0999 V2000
    0.3660    4.3764    0.0000 O   0  0  0  0  0  0  0  0  0  0  0  0
    0.8660    3.5104    0.0000 C   0  0  1  0  0  0  0  0  0  0  0  0
    1.3660    2.6444    0.0000 H   0  0  0  0  0  0  0  0  0  0  0  0
    1.7321    4.0104    0.0000 C   0  0  0  0  0  0  0  0  0  0  0  0
    1.7321    5.0104    0.0000 O   0  0  0  0  0  0  0  0  0  0  0  0
    2.5981    5.5104    0.0000 C   0  0  0  0  0  0  0  0  0  0  0  0
    3.4719    5.0126    0.0000 C   0  0  0  0  0  0  0  0  0  0  0  0
    4.3430    5.5155    0.0000 C   0  0  0  0  0  0  0  0  0  0  0  0
    4.3402    6.5162    0.0000 C   0  0  0  0  0  0  0  0  0  0  0  0
    3.4761    7.0196    0.0000 C   0  0  0  0  0  0  0  0  0  0  0  0
    3.2668    8.0047    0.0000 C   0  0  0  0  0  0  0  0  0  0  0  0
    2.2652    8.1100    0.0000 C   0  0  2  0  0  0  0  0  0  0  0  0
    1.3141    8.4190    0.0000 H   0  0  0  0  0  0  0  0  0  0  0  0
    2.4730    9.0882    0.0000 C   0  0  0  0  0  0  0  0  0  0  0  0
    1.7299    9.7573    0.0000 C   0  0  0  0  0  0  0  0  0  0  0  0
    0.7748    9.4438    0.0000 C   0  0  0  0  0  0  0  0  0  0  0  0
    0.0316   10.1129    0.0000 C   0  0  0  0  0  0  0  0  0  0  0  0
    0.2337   11.0923    0.0000 C   0  0  0  0  0  0  0  0  0  0  0  0
    1.1888   11.4058    0.0000 C   0  0  0  0  0  0  0  0  0  0  0  0
    1.9417   10.7399    0.0000 C   0  0  0  0  0  0  0  0  0  0  0  0
    1.8557    7.1900    0.0000 C   0  0  0  0  0  0  0  0  0  0  0  0
    0.8775    6.9822    0.0000 O   0  0  0  0  0  0  0  0  0  0  0  0
    2.6039    6.5161    0.0000 C   0  0  0  0  0  0  0  0  0  0  0  0
   -0.0000    3.0104    0.0000 C   0  0  0  0  0  0  0  0  0  0  0  0
   -0.0000    2.0104    0.0000 N   0  0  0  0  0  0  0  0  0  0  0  0
   -0.8675    1.5027    0.0000 C   0  0  0  0  0  0  0  0  0  0  0  0
   -0.8675    0.4975    0.0000 C   0  0  0  0  0  0  0  0  0  0  0  0
    0.0000    0.0000    0.0000 C   0  0  0  0  0  0  0  0  0  0  0  0
    0.8675    0.4975    0.0000 C   0  0  0  0  0  0  0  0  0  0  0  0
    0.8675    1.5027    0.0000 C   0  0  0  0  0  0  0  0  0  0  0  0
  1  2  1  0  0  0  0
  2  3  1  6  0  0  0
  2  4  1  0  0  0  0
  4  5  1  0  0  0  0
  5  6  1  0  0  0  0
  6 23  2  0  0  0  0
  6  7  1  0  0  0  0
  7  8  2  0  0  0  0
  8  9  1  0  0  0  0
  9 10  2  0  0  0  0
 10 23  1  0  0  0  0
 10 11  1  0  0  0  0
 11 12  1  0  0  0  0
 12 13  1  6  0  0  0
 12 14  1  0  0  0  0
 14 15  1  0  0  0  0
 15 20  2  0  0  0  0
 15 16  1  0  0  0  0
 16 17  2  0  0  0  0
 17 18  1  0  0  0  0
 18 19  2  0  0  0  0
 19 20  1  0  0  0  0
 12 21  1  0  0  0  0
 21 22  2  0  0  0  0
 21 23  1  0  0  0  0
  2 24  1  0  0  0  0
 24 25  1  0  0  0  0
 25 30  1  0  0  0  0
 25 26  1  0  0  0  0
 26 27  1  0  0  0  0
 27 28  1  0  0  0  0
 28 29  1  0  0  0  0
 29 30  1  0  0  0  0
M  END
> <ID>
1591166

$$$$
1591167
  -OEChem-05171416412D

 30 33  0     1  0  0  0  0  0999 V2000
    0.3660    4.3764    0.0000 O   0  0  0  0  0  0  0  0  0  0  0  0
    0.8660    3.5104    0.0000 C   0  0  1  0  0  0  0  0  0  0  0  0
    1.3660    2.6444    0.0000 H   0  0  0  0  0  0  0  0  0  0  0  0
    1.7321    4.0104    0.0000 C   0  0  0  0  0  0  0  0  0  0  0  0
    1.7321    5.0104    0.0000 O   0  0  0  0  0  0  0  0  0  0  0  0
    2.5981    5.5104    0.0000 C   0  0  0  0  0  0  0  0  0  0  0  0
    3.4719    5.0126    0.0000 C   0  0  0  0  0  0  0  0  0  0  0  0
    4.3430    5.5155    0.0000 C   0  0  0  0  0  0  0  0  0  0  0  0
    4.3402    6.5162    0.0000 C   0  0  0  0  0  0  0  0  0  0  0  0
    3.4761    7.0196    0.0000 C   0  0  0  0  0  0  0  0  0  0  0  0
    3.2668    8.0047    0.0000 C   0  0  0  0  0  0  0  0  0  0  0  0
    3.9360    8.7479    0.0000 O   0  0  0  0  0  0  0  0  0  0  0  0
    2.2652    8.1100    0.0000 C   0  0  2  0  0  0  0  0  0  0  0  0
    1.3141    8.4190    0.0000 H   0  0  0  0  0  0  0  0  0  0  0  0
    2.4730    9.0882    0.0000 C   0  0  0  0  0  0  0  0  0  0  0  0
    1.7299    9.7573    0.0000 C   0  0  0  0  0  0  0  0  0  0  0  0
    0.7748    9.4438    0.0000 C   0  0  0  0  0  0  0  0  0  0  0  0
    0.0316   10.1129    0.0000 C   0  0  0  0  0  0  0  0  0  0  0  0
    0.2337   11.0923    0.0000 C   0  0  0  0  0  0  0  0  0  0  0  0
    1.1888   11.4058    0.0000 C   0  0  0  0  0  0  0  0  0  0  0  0
    1.9417   10.7399    0.0000 C   0  0  0  0  0  0  0  0  0  0  0  0
    1.8557    7.1900    0.0000 C   0  0  0  0  0  0  0  0  0  0  0  0
    2.6039    6.5161    0.0000 C   0  0  0  0  0  0  0  0  0  0  0  0
   -0.0000    3.0104    0.0000 C   0  0  0  0  0  0  0  0  0  0  0  0
   -0.0000    2.0104    0.0000 N   0  0  0  0  0  0  0  0  0  0  0  0
   -0.8675    1.5027    0.0000 C   0  0  0  0  0  0  0  0  0  0  0  0
   -0.8675    0.4975    0.0000 C   0  0  0  0  0  0  0  0  0  0  0  0
    0.0000    0.0000    0.0000 C   0  0  0  0  0  0  0  0  0  0  0  0
    0.8675    0.4975    0.0000 C   0  0  0  0  0  0  0  0  0  0  0  0
    0.8675    1.5027    0.0000 C   0  0  0  0  0  0  0  0  0  0  0  0
  1  2  1  0  0  0  0
  2  3  1  6  0  0  0
  2  4  1  0  0  0  0
  4  5  1  0  0  0  0
  5  6  1  0  0  0  0
  6 23  2  0  0  0  0
  6  7  1  0  0  0  0
  7  8  2  0  0  0  0
  8  9  1  0  0  0  0
  9 10  2  0  0  0  0
 10 23  1  0  0  0  0
 10 11  1  0  0  0  0
 11 12  2  0  0  0  0
 11 13  1  0  0  0  0
 13 14  1  6  0  0  0
 13 15  1  0  0  0  0
 15 16  1  0  0  0  0
 16 21  2  0  0  0  0
 16 17  1  0  0  0  0
 17 18  2  0  0  0  0
 18 19  1  0  0  0  0
 19 20  2  0  0  0  0
 20 21  1  0  0  0  0
 13 22  1  0  0  0  0
 22 23  1  0  0  0  0
  2 24  1  0  0  0  0
 24 25  1  0  0  0  0
 25 30  1  0  0  0  0
 25 26  1  0  0  0  0
 26 27  1  0  0  0  0
 27 28  1  0  0  0  0
 28 29  1  0  0  0  0
 29 30  1  0  0  0  0
M  END
> <ID>
1591167

$$$$
1591168
  -OEChem-05171416412D

 38 42  0     1  0  0  0  0  0999 V2000
    2.5935    4.5228    0.0000 C   0  0  0  0  0  0  0  0  0  0  0  0
    1.7305    4.0177    0.0000 C   0  0  0  0  0  0  0  0  0  0  0  0
    0.8585    4.5177    0.0000 C   0  0  0  0  0  0  0  0  0  0  0  0
   -0.0047    4.0127    0.0000 C   0  0  0  0  0  0  0  0  0  0  0  0
   -0.0046    3.0126    0.0000 C   0  0  0  0  0  0  0  0  0  0  0  0
    0.8674    2.5126    0.0000 C   0  0  0  0  0  0  0  0  0  0  0  0
    0.8674    1.5126    0.0000 N   0  0  0  0  0  0  0  0  0  0  0  0
    0.0000    1.0051    0.0000 C   0  0  0  0  0  0  0  0  0  0  0  0
    0.0000    0.0000    0.0000 C   0  0  0  0  0  0  0  0  0  0  0  0
    0.8674   -0.4976    0.0000 N   0  0  0  0  0  0  0  0  0  0  0  0
    0.8674   -1.4976    0.0000 C   0  0  0  0  0  0  0  0  0  0  0  0
    1.7334   -1.9976    0.0000 C   0  0  1  0  0  0  0  0  0  0  0  0
    2.2334   -1.1316    0.0000 H   0  0  0  0  0  0  0  0  0  0  0  0
    1.2334   -2.8636    0.0000 O   0  0  0  0  0  0  0  0  0  0  0  0
    2.5995   -2.4976    0.0000 C   0  0  0  0  0  0  0  0  0  0  0  0
    3.4655   -1.9976    0.0000 O   0  0  0  0  0  0  0  0  0  0  0  0
    4.3315   -2.4976    0.0000 C   0  0  0  0  0  0  0  0  0  0  0  0
    4.3374   -3.5033    0.0000 C   0  0  0  0  0  0  0  0  0  0  0  0
    5.2084   -4.0062    0.0000 C   0  0  0  0  0  0  0  0  0  0  0  0
    6.0736   -3.5034    0.0000 C   0  0  0  0  0  0  0  0  0  0  0  0
    6.0775   -2.5034    0.0000 C   0  0  0  0  0  0  0  0  0  0  0  0
    6.8260   -1.8296    0.0000 C   0  0  0  0  0  0  0  0  0  0  0  0
    6.4164   -0.9095    0.0000 C   0  0  2  0  0  0  0  0  0  0  0  0
    6.2084    0.0687    0.0000 H   0  0  0  0  0  0  0  0  0  0  0  0
    7.3674   -0.6004    0.0000 C   0  0  0  0  0  0  0  0  0  0  0  0
    7.5753    0.3777    0.0000 C   0  0  0  0  0  0  0  0  0  0  0  0
    6.8263    1.0481    0.0000 C   0  0  0  0  0  0  0  0  0  0  0  0
    7.0341    2.0263    0.0000 C   0  0  0  0  0  0  0  0  0  0  0  0
    7.9834    2.3409    0.0000 C   0  0  0  0  0  0  0  0  0  0  0  0
    8.7324    1.6705    0.0000 C   0  0  0  0  0  0  0  0  0  0  0  0
    8.5322    0.6855    0.0000 C   0  0  0  0  0  0  0  0  0  0  0  0
    5.4149   -1.0149    0.0000 C   0  0  0  0  0  0  0  0  0  0  0  0
    4.7458   -0.2717    0.0000 O   0  0  0  0  0  0  0  0  0  0  0  0
    5.2054   -1.9998    0.0000 C   0  0  0  0  0  0  0  0  0  0  0  0
    1.7348    0.0000    0.0000 C   0  0  0  0  0  0  0  0  0  0  0  0
    1.7348    1.0051    0.0000 C   0  0  0  0  0  0  0  0  0  0  0  0
    1.7394    3.0126    0.0000 C   0  0  0  0  0  0  0  0  0  0  0  0
    2.6069    2.5152    0.0000 C   0  0  0  0  0  0  0  0  0  0  0  0
  1  2  1  0  0  0  0
  2 37  2  0  0  0  0
  2  3  1  0  0  0  0
  3  4  2  0  0  0  0
  4  5  1  0  0  0  0
  5  6  2  0  0  0  0
  6  7  1  0  0  0  0
  7 36  1  0  0  0  0
  7  8  1  0  0  0  0
  8  9  1  0  0  0  0
  9 10  1  0  0  0  0
 10 11  1  0  0  0  0
 11 12  1  0  0  0  0
 12 13  1  1  0  0  0
 12 14  1  0  0  0  0
 12 15  1  0  0  0  0
 15 16  1  0  0  0  0
 16 17  1  0  0  0  0
 17 34  2  0  0  0  0
 17 18  1  0  0  0  0
 18 19  2  0  0  0  0
 19 20  1  0  0  0  0
 20 21  2  0  0  0  0
 21 34  1  0  0  0  0
 21 22  1  0  0  0  0
 22 23  1  0  0  0  0
 23 24  1  6  0  0  0
 23 25  1  0  0  0  0
 25 26  1  0  0  0  0
 26 31  2  0  0  0  0
 26 27  1  0  0  0  0
 27 28  2  0  0  0  0
 28 29  1  0  0  0  0
 29 30  2  0  0  0  0
 30 31  1  0  0  0  0
 23 32  1  0  0  0  0
 32 33  2  0  0  0  0
 32 34  1  0  0  0  0
 10 35  1  0  0  0  0
 35 36  1  0  0  0  0
  6 37  1  0  0  0  0
 37 38  1  0  0  0  0
M  END
> <ID>
1591168

$$$$
1591169
  -OEChem-05171416412D

 38 42  0     1  0  0  0  0  0999 V2000
    1.7399    6.0139    0.0000 C   0  0  0  0  0  0  0  0  0  0  0  0
    0.8717    5.5177    0.0000 O   0  0  0  0  0  0  0  0  0  0  0  0
    0.8673    4.5178    0.0000 C   0  0  0  0  0  0  0  0  0  0  0  0
    1.7371    4.0139    0.0000 C   0  0  0  0  0  0  0  0  0  0  0  0
    1.7327    3.0139    0.0000 C   0  0  0  0  0  0  0  0  0  0  0  0
    0.8674    2.5126    0.0000 C   0  0  0  0  0  0  0  0  0  0  0  0
   -0.0024    3.0165    0.0000 C   0  0  0  0  0  0  0  0  0  0  0  0
   -0.0069    4.0216    0.0000 C   0  0  0  0  0  0  0  0  0  0  0  0
    0.8674    1.5126    0.0000 N   0  0  0  0  0  0  0  0  0  0  0  0
    0.0000    1.0051    0.0000 C   0  0  0  0  0  0  0  0  0  0  0  0
    0.0000    0.0000    0.0000 C   0  0  0  0  0  0  0  0  0  0  0  0
    0.8674   -0.4976    0.0000 N   0  0  0  0  0  0  0  0  0  0  0  0
    0.8674   -1.4976    0.0000 C   0  0  0  0  0  0  0  0  0  0  0  0
    1.7334   -1.9976    0.0000 C   0  0  1  0  0  0  0  0  0  0  0  0
    2.2334   -1.1316    0.0000 H   0  0  0  0  0  0  0  0  0  0  0  0
    1.2334   -2.8636    0.0000 O   0  0  0  0  0  0  0  0  0  0  0  0
    2.5995   -2.4976    0.0000 C   0  0  0  0  0  0  0  0  0  0  0  0
    3.4655   -1.9976    0.0000 O   0  0  0  0  0  0  0  0  0  0  0  0
    4.3315   -2.4976    0.0000 C   0  0  0  0  0  0  0  0  0  0  0  0
    4.3374   -3.5033    0.0000 C   0  0  0  0  0  0  0  0  0  0  0  0
    5.2084   -4.0062    0.0000 C   0  0  0  0  0  0  0  0  0  0  0  0
    6.0736   -3.5034    0.0000 C   0  0  0  0  0  0  0  0  0  0  0  0
    6.0775   -2.5034    0.0000 C   0  0  0  0  0  0  0  0  0  0  0  0
    6.8260   -1.8296    0.0000 C   0  0  0  0  0  0  0  0  0  0  0  0
    6.4164   -0.9095    0.0000 C   0  0  2  0  0  0  0  0  0  0  0  0
    6.2084    0.0687    0.0000 H   0  0  0  0  0  0  0  0  0  0  0  0
    7.3674   -0.6004    0.0000 C   0  0  0  0  0  0  0  0  0  0  0  0
    7.5753    0.3777    0.0000 C   0  0  0  0  0  0  0  0  0  0  0  0
    6.8263    1.0481    0.0000 C   0  0  0  0  0  0  0  0  0  0  0  0
    7.0341    2.0263    0.0000 C   0  0  0  0  0  0  0  0  0  0  0  0
    7.9834    2.3409    0.0000 C   0  0  0  0  0  0  0  0  0  0  0  0
    8.7324    1.6705    0.0000 C   0  0  0  0  0  0  0  0  0  0  0  0
    8.5322    0.6855    0.0000 C   0  0  0  0  0  0  0  0  0  0  0  0
    5.4149   -1.0149    0.0000 C   0  0  0  0  0  0  0  0  0  0  0  0
    4.7458   -0.2717    0.0000 O   0  0  0  0  0  0  0  0  0  0  0  0
    5.2054   -1.9998    0.0000 C   0  0  0  0  0  0  0  0  0  0  0  0
    1.7348    0.0000    0.0000 C   0  0  0  0  0  0  0  0  0  0  0  0
    1.7348    1.0051    0.0000 C   0  0  0  0  0  0  0  0  0  0  0  0
  1  2  1  0  0  0  0
  2  3  1  0  0  0  0
  3  8  2  0  0  0  0
  3  4  1  0  0  0  0
  4  5  2  0  0  0  0
  5  6  1  0  0  0  0
  6  7  2  0  0  0  0
  7  8  1  0  0  0  0
  6  9  1  0  0  0  0
  9 38  1  0  0  0  0
  9 10  1  0  0  0  0
 10 11  1  0  0  0  0
 11 12  1  0  0  0  0
 12 13  1  0  0  0  0
 13 14  1  0  0  0  0
 14 15  1  1  0  0  0
 14 16  1  0  0  0  0
 14 17  1  0  0  0  0
 17 18  1  0  0  0  0
 18 19  1  0  0  0  0
 19 36  2  0  0  0  0
 19 20  1  0  0  0  0
 20 21  2  0  0  0  0
 21 22  1  0  0  0  0
 22 23  2  0  0  0  0
 23 36  1  0  0  0  0
 23 24  1  0  0  0  0
 24 25  1  0  0  0  0
 25 26  1  6  0  0  0
 25 27  1  0  0  0  0
 27 28  1  0  0  0  0
 28 33  2  0  0  0  0
 28 29  1  0  0  0  0
 29 30  2  0  0  0  0
 30 31  1  0  0  0  0
 31 32  2  0  0  0  0
 32 33  1  0  0  0  0
 25 34  1  0  0  0  0
 34 35  2  0  0  0  0
 34 36  1  0  0  0  0
 12 37  1  0  0  0  0
 37 38  1  0  0  0  0
M  END
> <ID>
1591169

$$$$
1591170
  -OEChem-05171416412D

 30 33  0     1  0  0  0  0  0999 V2000
    0.5015   -2.8635    0.0000 O   0  0  0  0  0  0  0  0  0  0  0  0
    0.0015   -1.9975    0.0000 C   0  0  1  0  0  0  0  0  0  0  0  0
   -0.4985   -1.1315    0.0000 H   0  0  0  0  0  0  0  0  0  0  0  0
   -0.8646   -2.4975    0.0000 C   0  0  0  0  0  0  0  0  0  0  0  0
   -0.8646   -3.4975    0.0000 O   0  0  0  0  0  0  0  0  0  0  0  0
   -1.7306   -3.9975    0.0000 C   0  0  0  0  0  0  0  0  0  0  0  0
   -2.6044   -3.4997    0.0000 C   0  0  0  0  0  0  0  0  0  0  0  0
   -3.4755   -4.0026    0.0000 C   0  0  0  0  0  0  0  0  0  0  0  0
   -3.4727   -5.0033    0.0000 C   0  0  0  0  0  0  0  0  0  0  0  0
   -2.6086   -5.5067    0.0000 C   0  0  0  0  0  0  0  0  0  0  0  0
   -2.3993   -6.4918    0.0000 C   0  0  0  0  0  0  0  0  0  0  0  0
   -1.3977   -6.5971    0.0000 C   0  0  2  0  0  0  0  0  0  0  0  0
   -0.4466   -6.9061    0.0000 H   0  0  0  0  0  0  0  0  0  0  0  0
   -1.6055   -7.5753    0.0000 C   0  0  0  0  0  0  0  0  0  0  0  0
   -0.8624   -8.2444    0.0000 C   0  0  0  0  0  0  0  0  0  0  0  0
    0.0927   -7.9309    0.0000 C   0  0  0  0  0  0  0  0  0  0  0  0
    0.8359   -8.6000    0.0000 C   0  0  0  0  0  0  0  0  0  0  0  0
    0.6338   -9.5794    0.0000 C   0  0  0  0  0  0  0  0  0  0  0  0
   -0.3213   -9.8929    0.0000 C   0  0  0  0  0  0  0  0  0  0  0  0
   -1.0742   -9.2270    0.0000 C   0  0  0  0  0  0  0  0  0  0  0  0
   -0.9882   -5.6771    0.0000 C   0  0  0  0  0  0  0  0  0  0  0  0
   -0.0100   -5.4693    0.0000 O   0  0  0  0  0  0  0  0  0  0  0  0
   -1.7364   -5.0032    0.0000 C   0  0  0  0  0  0  0  0  0  0  0  0
    0.8675   -1.4975    0.0000 C   0  0  0  0  0  0  0  0  0  0  0  0
    0.8675   -0.4975    0.0000 N   0  0  0  0  0  0  0  0  0  0  0  0
    0.0000    0.0000    0.0000 C   0  0  0  0  0  0  0  0  0  0  0  0
   -0.0000    1.0052    0.0000 C   0  0  0  0  0  0  0  0  0  0  0  0
    0.8675    1.5129    0.0000 O   0  0  0  0  0  0  0  0  0  0  0  0
    1.7350    1.0052    0.0000 C   0  0  0  0  0  0  0  0  0  0  0  0
    1.7350    0.0000    0.0000 C   0  0  0  0  0  0  0  0  0  0  0  0
  1  2  1  0  0  0  0
  2  3  1  6  0  0  0
  2  4  1  0  0  0  0
  4  5  1  0  0  0  0
  5  6  1  0  0  0  0
  6 23  2  0  0  0  0
  6  7  1  0  0  0  0
  7  8  2  0  0  0  0
  8  9  1  0  0  0  0
  9 10  2  0  0  0  0
 10 23  1  0  0  0  0
 10 11  1  0  0  0  0
 11 12  1  0  0  0  0
 12 13  1  6  0  0  0
 12 14  1  0  0  0  0
 14 15  1  0  0  0  0
 15 20  2  0  0  0  0
 15 16  1  0  0  0  0
 16 17  2  0  0  0  0
 17 18  1  0  0  0  0
 18 19  2  0  0  0  0
 19 20  1  0  0  0  0
 12 21  1  0  0  0  0
 21 22  2  0  0  0  0
 21 23  1  0  0  0  0
  2 24  1  0  0  0  0
 24 25  1  0  0  0  0
 25 30  1  0  0  0  0
 25 26  1  0  0  0  0
 26 27  1  0  0  0  0
 27 28  1  0  0  0  0
 28 29  1  0  0  0  0
 29 30  1  0  0  0  0
M  END
> <ID>
1591170

$$$$
1591171
  -OEChem-05171416412D

 19 21  0     1  0  0  0  0  0999 V2000
   -0.0779    5.9928    0.0000 O   0  0  0  0  0  0  0  0  0  0  0  0
    0.5643    5.2262    0.0000 C   0  0  0  0  0  0  0  0  0  0  0  0
    0.2182    4.2814    0.0000 C   0  0  0  0  0  0  0  0  0  0  0  0
    0.8660    3.5104    0.0000 C   0  0  2  0  0  0  0  0  0  0  0  0
    1.2074    2.5705    0.0000 H   0  0  0  0  0  0  0  0  0  0  0  0
   -0.0000    3.0104    0.0000 C   0  0  0  0  0  0  0  0  0  0  0  0
   -0.0000    2.0104    0.0000 N   0  0  0  0  0  0  0  0  0  0  0  0
   -0.8675    1.5027    0.0000 C   0  0  0  0  0  0  0  0  0  0  0  0
   -0.8675    0.4975    0.0000 C   0  0  0  0  0  0  0  0  0  0  0  0
    0.0000    0.0000    0.0000 C   0  0  0  0  0  0  0  0  0  0  0  0
    0.8675    0.4975    0.0000 C   0  0  0  0  0  0  0  0  0  0  0  0
    0.8675    1.5027    0.0000 C   0  0  0  0  0  0  0  0  0  0  0  0
    1.8600    3.6842    0.0000 O   0  0  0  0  0  0  0  0  0  0  0  0
    2.1982    4.6297    0.0000 C   0  0  0  0  0  0  0  0  0  0  0  0
    3.1905    4.8013    0.0000 C   0  0  0  0  0  0  0  0  0  0  0  0
    3.5269    5.7492    0.0000 C   0  0  0  0  0  0  0  0  0  0  0  0
    2.8789    6.5183    0.0000 C   0  0  0  0  0  0  0  0  0  0  0  0
    1.8944    6.3397    0.0000 C   0  0  0  0  0  0  0  0  0  0  0  0
    1.5505    5.4007    0.0000 C   0  0  0  0  0  0  0  0  0  0  0  0
  1  2  2  0  0  0  0
  2 19  1  0  0  0  0
  2  3  1  0  0  0  0
  3  4  1  0  0  0  0
  4  5  1  6  0  0  0
  4  6  1  0  0  0  0
  6  7  1  0  0  0  0
  7 12  1  0  0  0  0
  7  8  1  0  0  0  0
  8  9  1  0  0  0  0
  9 10  1  0  0  0  0
 10 11  1  0  0  0  0
 11 12  1  0  0  0  0
  4 13  1  0  0  0  0
 13 14  1  0  0  0  0
 14 19  2  0  0  0  0
 14 15  1  0  0  0  0
 15 16  2  0  0  0  0
 16 17  1  0  0  0  0
 17 18  2  0  0  0  0
 18 19  1  0  0  0  0
M  END
> <ID>
1591171

$$$$
1591172
  -OEChem-05171416412D

 26 29  0     1  0  0  0  0  0999 V2000
    0.8717    5.5177    0.0000 F   0  0  0  0  0  0  0  0  0  0  0  0
    0.8673    4.5178    0.0000 C   0  0  0  0  0  0  0  0  0  0  0  0
    1.7371    4.0139    0.0000 C   0  0  0  0  0  0  0  0  0  0  0  0
    1.7327    3.0139    0.0000 C   0  0  0  0  0  0  0  0  0  0  0  0
    0.8674    2.5126    0.0000 C   0  0  0  0  0  0  0  0  0  0  0  0
   -0.0024    3.0165    0.0000 C   0  0  0  0  0  0  0  0  0  0  0  0
   -0.0069    4.0216    0.0000 C   0  0  0  0  0  0  0  0  0  0  0  0
    0.8674    1.5126    0.0000 N   0  0  0  0  0  0  0  0  0  0  0  0
    0.0000    1.0051    0.0000 C   0  0  0  0  0  0  0  0  0  0  0  0
    0.0000    0.0000    0.0000 C   0  0  0  0  0  0  0  0  0  0  0  0
    0.8674   -0.4976    0.0000 N   0  0  0  0  0  0  0  0  0  0  0  0
    0.8674   -1.4976    0.0000 C   0  0  0  0  0  0  0  0  0  0  0  0
    1.7334   -1.9976    0.0000 C   0  0  1  0  0  0  0  0  0  0  0  0
    2.0748   -1.0577    0.0000 H   0  0  0  0  0  0  0  0  0  0  0  0
    2.7254   -2.1711    0.0000 C   0  0  0  0  0  0  0  0  0  0  0  0
    3.0682   -3.1172    0.0000 C   0  0  0  0  0  0  0  0  0  0  0  0
    4.0530   -3.2909    0.0000 O   0  0  0  0  0  0  0  0  0  0  0  0
    2.4254   -3.8851    0.0000 C   0  0  0  0  0  0  0  0  0  0  0  0
    2.7663   -4.8253    0.0000 C   0  0  0  0  0  0  0  0  0  0  0  0
    2.1274   -5.5954    0.0000 C   0  0  0  0  0  0  0  0  0  0  0  0
    1.1365   -5.4234    0.0000 C   0  0  0  0  0  0  0  0  0  0  0  0
    0.7843   -4.4813    0.0000 C   0  0  0  0  0  0  0  0  0  0  0  0
    1.4336   -3.7116    0.0000 C   0  0  0  0  0  0  0  0  0  0  0  0
    1.0842   -2.7702    0.0000 O   0  0  0  0  0  0  0  0  0  0  0  0
    1.7348    0.0000    0.0000 C   0  0  0  0  0  0  0  0  0  0  0  0
    1.7348    1.0051    0.0000 C   0  0  0  0  0  0  0  0  0  0  0  0
  1  2  1  0  0  0  0
  2  7  2  0  0  0  0
  2  3  1  0  0  0  0
  3  4  2  0  0  0  0
  4  5  1  0  0  0  0
  5  6  2  0  0  0  0
  6  7  1  0  0  0  0
  5  8  1  0  0  0  0
  8 26  1  0  0  0  0
  8  9  1  0  0  0  0
  9 10  1  0  0  0  0
 10 11  1  0  0  0  0
 11 12  1  0  0  0  0
 12 13  1  0  0  0  0
 13 14  1  6  0  0  0
 13 24  1  0  0  0  0
 13 15  1  0  0  0  0
 15 16  1  0  0  0  0
 16 17  2  0  0  0  0
 16 18  1  0  0  0  0
 18 23  2  0  0  0  0
 18 19  1  0  0  0  0
 19 20  2  0  0  0  0
 20 21  1  0  0  0  0
 21 22  2  0  0  0  0
 22 23  1  0  0  0  0
 23 24  1  0  0  0  0
 11 25  1  0  0  0  0
 25 26  1  0  0  0  0
M  END
> <ID>
1591172

$$$$
1591173
  -OEChem-05171416412D

 27 30  0     1  0  0  0  0  0999 V2000
    2.5935    4.5228    0.0000 C   0  0  0  0  0  0  0  0  0  0  0  0
    1.7305    4.0177    0.0000 C   0  0  0  0  0  0  0  0  0  0  0  0
    0.8585    4.5177    0.0000 C   0  0  0  0  0  0  0  0  0  0  0  0
   -0.0047    4.0127    0.0000 C   0  0  0  0  0  0  0  0  0  0  0  0
   -0.0046    3.0126    0.0000 C   0  0  0  0  0  0  0  0  0  0  0  0
    0.8674    2.5126    0.0000 C   0  0  0  0  0  0  0  0  0  0  0  0
    0.8674    1.5126    0.0000 N   0  0  0  0  0  0  0  0  0  0  0  0
    0.0000    1.0051    0.0000 C   0  0  0  0  0  0  0  0  0  0  0  0
    0.0000    0.0000    0.0000 C   0  0  0  0  0  0  0  0  0  0  0  0
    0.8674   -0.4976    0.0000 N   0  0  0  0  0  0  0  0  0  0  0  0
    0.8674   -1.4976    0.0000 C   0  0  0  0  0  0  0  0  0  0  0  0
    1.7334   -1.9976    0.0000 C   0  0  1  0  0  0  0  0  0  0  0  0
    2.0748   -1.0577    0.0000 H   0  0  0  0  0  0  0  0  0  0  0  0
    2.7254   -2.1711    0.0000 C   0  0  0  0  0  0  0  0  0  0  0  0
    3.0682   -3.1172    0.0000 C   0  0  0  0  0  0  0  0  0  0  0  0
    4.0530   -3.2909    0.0000 O   0  0  0  0  0  0  0  0  0  0  0  0
    2.4254   -3.8851    0.0000 C   0  0  0  0  0  0  0  0  0  0  0  0
    2.7663   -4.8253    0.0000 C   0  0  0  0  0  0  0  0  0  0  0  0
    2.1274   -5.5954    0.0000 C   0  0  0  0  0  0  0  0  0  0  0  0
    1.1365   -5.4234    0.0000 C   0  0  0  0  0  0  0  0  0  0  0  0
    0.7843   -4.4813    0.0000 C   0  0  0  0  0  0  0  0  0  0  0  0
    1.4336   -3.7116    0.0000 C   0  0  0  0  0  0  0  0  0  0  0  0
    1.0842   -2.7702    0.0000 O   0  0  0  0  0  0  0  0  0  0  0  0
    1.7348    0.0000    0.0000 C   0  0  0  0  0  0  0  0  0  0  0  0
    1.7348    1.0051    0.0000 C   0  0  0  0  0  0  0  0  0  0  0  0
    1.7394    3.0126    0.0000 C   0  0  0  0  0  0  0  0  0  0  0  0
    2.6069    2.5152    0.0000 C   0  0  0  0  0  0  0  0  0  0  0  0
  1  2  1  0  0  0  0
  2 26  2  0  0  0  0
  2  3  1  0  0  0  0
  3  4  2  0  0  0  0
  4  5  1  0  0  0  0
  5  6  2  0  0  0  0
  6  7  1  0  0  0  0
  7 25  1  0  0  0  0
  7  8  1  0  0  0  0
  8  9  1  0  0  0  0
  9 10  1  0  0  0  0
 10 11  1  0  0  0  0
 11 12  1  0  0  0  0
 12 13  1  6  0  0  0
 12 23  1  0  0  0  0
 12 14  1  0  0  0  0
 14 15  1  0  0  0  0
 15 16  2  0  0  0  0
 15 17  1  0  0  0  0
 17 22  2  0  0  0  0
 17 18  1  0  0  0  0
 18 19  2  0  0  0  0
 19 20  1  0  0  0  0
 20 21  2  0  0  0  0
 21 22  1  0  0  0  0
 22 23  1  0  0  0  0
 10 24  1  0  0  0  0
 24 25  1  0  0  0  0
  6 26  1  0  0  0  0
 26 27  1  0  0  0  0
M  END
> <ID>
1591173

$$$$
1591174
  -OEChem-05171416412D

 26 29  0     1  0  0  0  0  0999 V2000
    0.7895    5.4950    0.0000 O   0  0  0  0  0  0  0  0  0  0  0  0
    1.4317    4.7284    0.0000 C   0  0  0  0  0  0  0  0  0  0  0  0
    1.0856    3.7836    0.0000 C   0  0  0  0  0  0  0  0  0  0  0  0
    1.7334    3.0126    0.0000 C   0  0  2  0  0  0  0  0  0  0  0  0
    2.0748    2.0727    0.0000 H   0  0  0  0  0  0  0  0  0  0  0  0
    0.8674    2.5126    0.0000 C   0  0  0  0  0  0  0  0  0  0  0  0
    0.8674    1.5126    0.0000 N   0  0  0  0  0  0  0  0  0  0  0  0
    0.0000    1.0051    0.0000 C   0  0  0  0  0  0  0  0  0  0  0  0
    0.0000    0.0000    0.0000 C   0  0  0  0  0  0  0  0  0  0  0  0
    0.8674   -0.4976    0.0000 N   0  0  0  0  0  0  0  0  0  0  0  0
    0.8674   -1.4976    0.0000 C   0  0  0  0  0  0  0  0  0  0  0  0
    1.7334   -1.9976    0.0000 C   0  0  0  0  0  0  0  0  0  0  0  0
    2.6025   -1.4924    0.0000 C   0  0  0  0  0  0  0  0  0  0  0  0
    3.4685   -1.9924    0.0000 C   0  0  0  0  0  0  0  0  0  0  0  0
    3.4744   -2.9924    0.0000 C   0  0  0  0  0  0  0  0  0  0  0  0
    2.6054   -3.4976    0.0000 C   0  0  0  0  0  0  0  0  0  0  0  0
    1.7305   -3.0027    0.0000 C   0  0  0  0  0  0  0  0  0  0  0  0
    1.7348    0.0000    0.0000 C   0  0  0  0  0  0  0  0  0  0  0  0
    1.7348    1.0051    0.0000 C   0  0  0  0  0  0  0  0  0  0  0  0
    2.7274    3.1864    0.0000 O   0  0  0  0  0  0  0  0  0  0  0  0
    3.0656    4.1319    0.0000 C   0  0  0  0  0  0  0  0  0  0  0  0
    4.0579    4.3035    0.0000 C   0  0  0  0  0  0  0  0  0  0  0  0
    4.3943    5.2514    0.0000 C   0  0  0  0  0  0  0  0  0  0  0  0
    3.7463    6.0205    0.0000 C   0  0  0  0  0  0  0  0  0  0  0  0
    2.7618    5.8419    0.0000 C   0  0  0  0  0  0  0  0  0  0  0  0
    2.4179    4.9029    0.0000 C   0  0  0  0  0  0  0  0  0  0  0  0
  1  2  2  0  0  0  0
  2 26  1  0  0  0  0
  2  3  1  0  0  0  0
  3  4  1  0  0  0  0
  4  5  1  6  0  0  0
  4  6  1  0  0  0  0
  6  7  1  0  0  0  0
  7 19  1  0  0  0  0
  7  8  1  0  0  0  0
  8  9  1  0  0  0  0
  9 10  1  0  0  0  0
 10 11  1  0  0  0  0
 11 12  1  0  0  0  0
 12 17  2  0  0  0  0
 12 13  1  0  0  0  0
 13 14  2  0  0  0  0
 14 15  1  0  0  0  0
 15 16  2  0  0  0  0
 16 17  1  0  0  0  0
 10 18  1  0  0  0  0
 18 19  1  0  0  0  0
  4 20  1  0  0  0  0
 20 21  1  0  0  0  0
 21 26  2  0  0  0  0
 21 22  1  0  0  0  0
 22 23  2  0  0  0  0
 23 24  1  0  0  0  0
 24 25  2  0  0  0  0
 25 26  1  0  0  0  0
M  END
> <ID>
1591174

$$$$
1591175
  -OEChem-05171416412D

 19 21  0     1  0  0  0  0  0999 V2000
    0.9454   -4.4799    0.0000 O   0  0  0  0  0  0  0  0  0  0  0  0
    0.3032   -3.7133    0.0000 C   0  0  0  0  0  0  0  0  0  0  0  0
    0.6493   -2.7685    0.0000 C   0  0  0  0  0  0  0  0  0  0  0  0
    0.0015   -1.9975    0.0000 C   0  0  2  0  0  0  0  0  0  0  0  0
   -0.3399   -1.0576    0.0000 H   0  0  0  0  0  0  0  0  0  0  0  0
    0.8675   -1.4975    0.0000 C   0  0  0  0  0  0  0  0  0  0  0  0
    0.8675   -0.4975    0.0000 N   0  0  0  0  0  0  0  0  0  0  0  0
    0.0000    0.0000    0.0000 C   0  0  0  0  0  0  0  0  0  0  0  0
   -0.0000    1.0052    0.0000 C   0  0  0  0  0  0  0  0  0  0  0  0
    0.8675    1.5129    0.0000 O   0  0  0  0  0  0  0  0  0  0  0  0
    1.7350    1.0052    0.0000 C   0  0  0  0  0  0  0  0  0  0  0  0
    1.7350    0.0000    0.0000 C   0  0  0  0  0  0  0  0  0  0  0  0
   -0.9925   -2.1713    0.0000 O   0  0  0  0  0  0  0  0  0  0  0  0
   -1.3307   -3.1168    0.0000 C   0  0  0  0  0  0  0  0  0  0  0  0
   -2.3230   -3.2884    0.0000 C   0  0  0  0  0  0  0  0  0  0  0  0
   -2.6594   -4.2363    0.0000 C   0  0  0  0  0  0  0  0  0  0  0  0
   -2.0114   -5.0054    0.0000 C   0  0  0  0  0  0  0  0  0  0  0  0
   -1.0269   -4.8268    0.0000 C   0  0  0  0  0  0  0  0  0  0  0  0
   -0.6830   -3.8878    0.0000 C   0  0  0  0  0  0  0  0  0  0  0  0
  1  2  2  0  0  0  0
  2 19  1  0  0  0  0
  2  3  1  0  0  0  0
  3  4  1  0  0  0  0
  4  5  1  6  0  0  0
  4  6  1  0  0  0  0
  6  7  1  0  0  0  0
  7 12  1  0  0  0  0
  7  8  1  0  0  0  0
  8  9  1  0  0  0  0
  9 10  1  0  0  0  0
 10 11  1  0  0  0  0
 11 12  1  0  0  0  0
  4 13  1  0  0  0  0
 13 14  1  0  0  0  0
 14 19  2  0  0  0  0
 14 15  1  0  0  0  0
 15 16  2  0  0  0  0
 16 17  1  0  0  0  0
 17 18  2  0  0  0  0
 18 19  1  0  0  0  0
M  END
> <ID>
1591175

$$$$
372340
  -OEChem-05171416412D

 23 24  0     0  0  0  0  0  0999 V2000
    4.3265   -4.5038    0.0000 C   0  0  0  0  0  0  0  0  0  0  0  0
    4.3280   -3.5038    0.0000 C   0  0  0  0  0  0  0  0  0  0  0  0
    3.4627   -3.0025    0.0000 O   0  0  0  0  0  0  0  0  0  0  0  0
    3.4641   -2.0025    0.0000 C   0  0  0  0  0  0  0  0  0  0  0  0
    4.3309   -1.5038    0.0000 O   0  0  0  0  0  0  0  0  0  0  0  0
    2.5988   -1.5013    0.0000 C   0  0  0  0  0  0  0  0  0  0  0  0
    2.6003   -0.5013    0.0000 O   0  0  0  0  0  0  0  0  0  0  0  0
    1.7350    0.0000    0.0000 C   0  0  0  0  0  0  0  0  0  0  0  0
    0.8675   -0.4975    0.0000 C   0  0  0  0  0  0  0  0  0  0  0  0
    0.0000    0.0000    0.0000 C   0  0  0  0  0  0  0  0  0  0  0  0
   -0.0000    1.0052    0.0000 C   0  0  0  0  0  0  0  0  0  0  0  0
    0.8675    1.5129    0.0000 C   0  0  0  0  0  0  0  0  0  0  0  0
    1.7350    1.0052    0.0000 C   0  0  0  0  0  0  0  0  0  0  0  0
    2.6025    1.5026    0.0000 C   0  0  0  0  0  0  0  0  0  0  0  0
    3.4670    1.0001    0.0000 O   0  0  0  0  0  0  0  0  0  0  0  0
    2.6054    2.5026    0.0000 C   0  0  0  0  0  0  0  0  0  0  0  0
    3.4729    3.0001    0.0000 C   0  0  0  0  0  0  0  0  0  0  0  0
    3.4759    4.0001    0.0000 C   0  0  0  0  0  0  0  0  0  0  0  0
    2.6054    4.5027    0.0000 C   0  0  0  0  0  0  0  0  0  0  0  0
    2.6083    5.5027    0.0000 C   0  0  0  0  0  0  0  0  0  0  0  0
    3.4729    6.0052    0.0000 C   0  0  0  0  0  0  0  0  0  0  0  0
    4.3434    5.5026    0.0000 C   0  0  0  0  0  0  0  0  0  0  0  0
    4.3493    4.4975    0.0000 C   0  0  0  0  0  0  0  0  0  0  0  0
  1  2  1  0  0  0  0
  2  3  1  0  0  0  0
  3  4  1  0  0  0  0
  4  5  2  0  0  0  0
  4  6  1  0  0  0  0
  6  7  1  0  0  0  0
  7  8  1  0  0  0  0
  8 13  2  0  0  0  0
  8  9  1  0  0  0  0
  9 10  2  0  0  0  0
 10 11  1  0  0  0  0
 11 12  2  0  0  0  0
 12 13  1  0  0  0  0
 13 14  1  0  0  0  0
 14 15  2  0  0  0  0
 14 16  1  0  0  0  0
 16 17  1  0  0  0  0
 17 18  1  0  0  0  0
 18 23  2  0  0  0  0
 18 19  1  0  0  0  0
 19 20  2  0  0  0  0
 20 21  1  0  0  0  0
 21 22  2  0  0  0  0
 22 23  1  0  0  0  0
M  END
> <ID>
372340

$$$$
372341
  -OEChem-05171416412D

 21 22  0     0  0  0  0  0  0999 V2000
    3.4627   -3.0025    0.0000 O   0  0  0  0  0  0  0  0  0  0  0  0
    3.4641   -2.0025    0.0000 C   0  0  0  0  0  0  0  0  0  0  0  0
    4.3309   -1.5038    0.0000 O   0  0  0  0  0  0  0  0  0  0  0  0
    2.5988   -1.5013    0.0000 C   0  0  0  0  0  0  0  0  0  0  0  0
    2.6003   -0.5013    0.0000 O   0  0  0  0  0  0  0  0  0  0  0  0
    1.7350    0.0000    0.0000 C   0  0  0  0  0  0  0  0  0  0  0  0
    0.8675   -0.4975    0.0000 C   0  0  0  0  0  0  0  0  0  0  0  0
    0.0000    0.0000    0.0000 C   0  0  0  0  0  0  0  0  0  0  0  0
   -0.0000    1.0052    0.0000 C   0  0  0  0  0  0  0  0  0  0  0  0
    0.8675    1.5129    0.0000 C   0  0  0  0  0  0  0  0  0  0  0  0
    1.7350    1.0052    0.0000 C   0  0  0  0  0  0  0  0  0  0  0  0
    2.6025    1.5026    0.0000 C   0  0  0  0  0  0  0  0  0  0  0  0
    3.4670    1.0001    0.0000 O   0  0  0  0  0  0  0  0  0  0  0  0
    2.6054    2.5026    0.0000 C   0  0  0  0  0  0  0  0  0  0  0  0
    3.4729    3.0001    0.0000 C   0  0  0  0  0  0  0  0  0  0  0  0
    3.4759    4.0001    0.0000 C   0  0  0  0  0  0  0  0  0  0  0  0
    2.6054    4.5027    0.0000 C   0  0  0  0  0  0  0  0  0  0  0  0
    2.6083    5.5027    0.0000 C   0  0  0  0  0  0  0  0  0  0  0  0
    3.4729    6.0052    0.0000 C   0  0  0  0  0  0  0  0  0  0  0  0
    4.3434    5.5026    0.0000 C   0  0  0  0  0  0  0  0  0  0  0  0
    4.3493    4.4975    0.0000 C   0  0  0  0  0  0  0  0  0  0  0  0
  1  2  1  0  0  0  0
  2  3  2  0  0  0  0
  2  4  1  0  0  0  0
  4  5  1  0  0  0  0
  5  6  1  0  0  0  0
  6 11  2  0  0  0  0
  6  7  1  0  0  0  0
  7  8  2  0  0  0  0
  8  9  1  0  0  0  0
  9 10  2  0  0  0  0
 10 11  1  0  0  0  0
 11 12  1  0  0  0  0
 12 13  2  0  0  0  0
 12 14  1  0  0  0  0
 14 15  1  0  0  0  0
 15 16  1  0  0  0  0
 16 21  2  0  0  0  0
 16 17  1  0  0  0  0
 17 18  2  0  0  0  0
 18 19  1  0  0  0  0
 19 20  2  0  0  0  0
 20 21  1  0  0  0  0
M  END
> <ID>
372341

$$$$
1591176
  -OEChem-05171416412D

 29 31  0     1  0  0  0  0  0999 V2000
    6.9340    6.0077    0.0000 C   0  0  0  0  0  0  0  0  0  0  0  0
    6.0701    6.5115    0.0000 C   0  0  0  0  0  0  0  0  0  0  0  0
    6.0746    7.5115    0.0000 O   0  0  0  0  0  0  0  0  0  0  0  0
    5.2019    6.0153    0.0000 C   0  0  0  0  0  0  0  0  0  0  0  0
    5.2005    5.0101    0.0000 C   0  0  0  0  0  0  0  0  0  0  0  0
    4.3323    4.5138    0.0000 C   0  0  0  0  0  0  0  0  0  0  0  0
    3.4655    5.0126    0.0000 C   0  0  0  0  0  0  0  0  0  0  0  0
    2.5995    4.5126    0.0000 O   0  0  0  0  0  0  0  0  0  0  0  0
    2.5995    3.5126    0.0000 C   0  0  0  0  0  0  0  0  0  0  0  0
    1.7334    3.0126    0.0000 C   0  0  2  0  0  0  0  0  0  0  0  0
    2.2334    2.1466    0.0000 H   0  0  0  0  0  0  0  0  0  0  0  0
    1.2334    3.8786    0.0000 O   0  0  0  0  0  0  0  0  0  0  0  0
    0.8674    2.5126    0.0000 C   0  0  0  0  0  0  0  0  0  0  0  0
    0.8674    1.5126    0.0000 N   0  0  0  0  0  0  0  0  0  0  0  0
    0.0000    1.0051    0.0000 C   0  0  0  0  0  0  0  0  0  0  0  0
    0.0000    0.0000    0.0000 C   0  0  0  0  0  0  0  0  0  0  0  0
    0.8674   -0.4976    0.0000 N   0  0  0  0  0  0  0  0  0  0  0  0
    1.7348    0.0000    0.0000 C   0  0  0  0  0  0  0  0  0  0  0  0
    1.7348    1.0051    0.0000 C   0  0  0  0  0  0  0  0  0  0  0  0
    0.8674   -1.4976    0.0000 C   0  0  0  0  0  0  0  0  0  0  0  0
   -0.0046   -1.9976    0.0000 C   0  0  0  0  0  0  0  0  0  0  0  0
   -0.0047   -2.9977    0.0000 C   0  0  0  0  0  0  0  0  0  0  0  0
    0.8585   -3.5027    0.0000 C   0  0  0  0  0  0  0  0  0  0  0  0
    1.7305   -3.0027    0.0000 C   0  0  0  0  0  0  0  0  0  0  0  0
    2.5935   -3.5078    0.0000 C   0  0  0  0  0  0  0  0  0  0  0  0
    1.7394   -1.9976    0.0000 C   0  0  0  0  0  0  0  0  0  0  0  0
    2.6069   -1.5002    0.0000 C   0  0  0  0  0  0  0  0  0  0  0  0
    3.4669    6.0178    0.0000 C   0  0  0  0  0  0  0  0  0  0  0  0
    4.3352    6.5242    0.0000 C   0  0  0  0  0  0  0  0  0  0  0  0
  1  2  1  0  0  0  0
  2  3  2  0  0  0  0
  2  4  1  0  0  0  0
  4 29  2  0  0  0  0
  4  5  1  0  0  0  0
  5  6  2  0  0  0  0
  6  7  1  0  0  0  0
  7  8  1  0  0  0  0
  8  9  1  0  0  0  0
  9 10  1  0  0  0  0
 10 11  1  6  0  0  0
 10 12  1  0  0  0  0
 10 13  1  0  0  0  0
 13 14  1  0  0  0  0
 14 19  1  0  0  0  0
 14 15  1  0  0  0  0
 15 16  1  0  0  0  0
 16 17  1  0  0  0  0
 17 18  1  0  0  0  0
 18 19  1  0  0  0  0
 17 20  1  0  0  0  0
 20 26  2  0  0  0  0
 20 21  1  0  0  0  0
 21 22  2  0  0  0  0
 22 23  1  0  0  0  0
 23 24  2  0  0  0  0
 24 25  1  0  0  0  0
 24 26  1  0  0  0  0
 26 27  1  0  0  0  0
  7 28  2  0  0  0  0
 28 29  1  0  0  0  0
M  END
> <ID>
1591176

$$$$
1591177
  -OEChem-05171416412D

 36 39  0     1  0  0  0  0  0999 V2000
    2.5935    4.5228    0.0000 C   0  0  0  0  0  0  0  0  0  0  0  0
    1.7305    4.0177    0.0000 C   0  0  0  0  0  0  0  0  0  0  0  0
    0.8585    4.5177    0.0000 C   0  0  0  0  0  0  0  0  0  0  0  0
   -0.0047    4.0127    0.0000 C   0  0  0  0  0  0  0  0  0  0  0  0
   -0.0046    3.0126    0.0000 C   0  0  0  0  0  0  0  0  0  0  0  0
    0.8674    2.5126    0.0000 C   0  0  0  0  0  0  0  0  0  0  0  0
    0.8674    1.5126    0.0000 N   0  0  0  0  0  0  0  0  0  0  0  0
    0.0000    1.0051    0.0000 C   0  0  0  0  0  0  0  0  0  0  0  0
    0.0000    0.0000    0.0000 C   0  0  0  0  0  0  0  0  0  0  0  0
    0.8674   -0.4976    0.0000 N   0  0  0  0  0  0  0  0  0  0  0  0
    0.8674   -1.4976    0.0000 C   0  0  0  0  0  0  0  0  0  0  0  0
    1.7334   -1.9976    0.0000 C   0  0  1  0  0  0  0  0  0  0  0  0
    2.2334   -1.1316    0.0000 H   0  0  0  0  0  0  0  0  0  0  0  0
    1.2334   -2.8636    0.0000 O   0  0  0  0  0  0  0  0  0  0  0  0
    2.5995   -2.4976    0.0000 C   0  0  0  0  0  0  0  0  0  0  0  0
    3.4655   -1.9976    0.0000 O   0  0  0  0  0  0  0  0  0  0  0  0
    4.3315   -2.4976    0.0000 C   0  0  0  0  0  0  0  0  0  0  0  0
    5.1983   -1.9988    0.0000 C   0  0  0  0  0  0  0  0  0  0  0  0
    6.0665   -2.4951    0.0000 C   0  0  0  0  0  0  0  0  0  0  0  0
    6.0680   -3.5003    0.0000 C   0  0  0  0  0  0  0  0  0  0  0  0
    5.2012   -4.0092    0.0000 C   0  0  0  0  0  0  0  0  0  0  0  0
    4.3330   -3.5028    0.0000 C   0  0  0  0  0  0  0  0  0  0  0  0
    3.4662   -4.0015    0.0000 C   0  0  0  0  0  0  0  0  0  0  0  0
    2.6009   -3.5002    0.0000 O   0  0  0  0  0  0  0  0  0  0  0  0
    3.4647   -5.0015    0.0000 C   0  0  0  0  0  0  0  0  0  0  0  0
    2.5979   -5.5002    0.0000 C   0  0  0  0  0  0  0  0  0  0  0  0
    2.5964   -6.5002    0.0000 C   0  0  0  0  0  0  0  0  0  0  0  0
    3.4677   -7.0015    0.0000 C   0  0  0  0  0  0  0  0  0  0  0  0
    3.4662   -8.0016    0.0000 C   0  0  0  0  0  0  0  0  0  0  0  0
    2.6023   -8.5053    0.0000 C   0  0  0  0  0  0  0  0  0  0  0  0
    1.7311   -8.0040    0.0000 C   0  0  0  0  0  0  0  0  0  0  0  0
    1.7237   -6.9989    0.0000 C   0  0  0  0  0  0  0  0  0  0  0  0
    1.7348    0.0000    0.0000 C   0  0  0  0  0  0  0  0  0  0  0  0
    1.7348    1.0051    0.0000 C   0  0  0  0  0  0  0  0  0  0  0  0
    1.7394    3.0126    0.0000 C   0  0  0  0  0  0  0  0  0  0  0  0
    2.6069    2.5152    0.0000 C   0  0  0  0  0  0  0  0  0  0  0  0
  1  2  1  0  0  0  0
  2 35  2  0  0  0  0
  2  3  1  0  0  0  0
  3  4  2  0  0  0  0
  4  5  1  0  0  0  0
  5  6  2  0  0  0  0
  6  7  1  0  0  0  0
  7 34  1  0  0  0  0
  7  8  1  0  0  0  0
  8  9  1  0  0  0  0
  9 10  1  0  0  0  0
 10 11  1  0  0  0  0
 11 12  1  0  0  0  0
 12 13  1  1  0  0  0
 12 14  1  0  0  0  0
 12 15  1  0  0  0  0
 15 16  1  0  0  0  0
 16 17  1  0  0  0  0
 17 22  2  0  0  0  0
 17 18  1  0  0  0  0
 18 19  2  0  0  0  0
 19 20  1  0  0  0  0
 20 21  2  0  0  0  0
 21 22  1  0  0  0  0
 22 23  1  0  0  0  0
 23 24  2  0  0  0  0
 23 25  1  0  0  0  0
 25 26  1  0  0  0  0
 26 27  1  0  0  0  0
 27 32  2  0  0  0  0
 27 28  1  0  0  0  0
 28 29  2  0  0  0  0
 29 30  1  0  0  0  0
 30 31  2  0  0  0  0
 31 32  1  0  0  0  0
 10 33  1  0  0  0  0
 33 34  1  0  0  0  0
  6 35  1  0  0  0  0
 35 36  1  0  0  0  0
M  END
> <ID>
1591177

$$$$
1591178
  -OEChem-05171416412D

 28 30  0     1  0  0  0  0  0999 V2000
    6.9340    6.0077    0.0000 C   0  0  0  0  0  0  0  0  0  0  0  0
    6.0701    6.5115    0.0000 C   0  0  0  0  0  0  0  0  0  0  0  0
    6.0746    7.5115    0.0000 O   0  0  0  0  0  0  0  0  0  0  0  0
    5.2019    6.0153    0.0000 C   0  0  0  0  0  0  0  0  0  0  0  0
    5.2005    5.0101    0.0000 C   0  0  0  0  0  0  0  0  0  0  0  0
    4.3323    4.5138    0.0000 C   0  0  0  0  0  0  0  0  0  0  0  0
    3.4655    5.0126    0.0000 C   0  0  0  0  0  0  0  0  0  0  0  0
    2.5995    4.5126    0.0000 O   0  0  0  0  0  0  0  0  0  0  0  0
    2.5995    3.5126    0.0000 C   0  0  0  0  0  0  0  0  0  0  0  0
    1.7334    3.0126    0.0000 C   0  0  2  0  0  0  0  0  0  0  0  0
    2.2334    2.1466    0.0000 H   0  0  0  0  0  0  0  0  0  0  0  0
    1.2334    3.8786    0.0000 O   0  0  0  0  0  0  0  0  0  0  0  0
    0.8674    2.5126    0.0000 C   0  0  0  0  0  0  0  0  0  0  0  0
    0.8674    1.5126    0.0000 N   0  0  0  0  0  0  0  0  0  0  0  0
    0.0000    1.0051    0.0000 C   0  0  0  0  0  0  0  0  0  0  0  0
    0.0000    0.0000    0.0000 C   0  0  0  0  0  0  0  0  0  0  0  0
    0.8674   -0.4976    0.0000 N   0  0  0  0  0  0  0  0  0  0  0  0
    1.7348    0.0000    0.0000 C   0  0  0  0  0  0  0  0  0  0  0  0
    1.7348    1.0051    0.0000 C   0  0  0  0  0  0  0  0  0  0  0  0
    0.8674   -1.4976    0.0000 C   0  0  0  0  0  0  0  0  0  0  0  0
    1.7327   -1.9989    0.0000 C   0  0  0  0  0  0  0  0  0  0  0  0
    1.7371   -2.9989    0.0000 C   0  0  0  0  0  0  0  0  0  0  0  0
    0.8673   -3.5028    0.0000 C   0  0  0  0  0  0  0  0  0  0  0  0
   -0.0069   -3.0066    0.0000 C   0  0  0  0  0  0  0  0  0  0  0  0
   -0.0024   -2.0015    0.0000 C   0  0  0  0  0  0  0  0  0  0  0  0
   -0.8677   -1.5002    0.0000 C   0  0  0  0  0  0  0  0  0  0  0  0
    3.4669    6.0178    0.0000 C   0  0  0  0  0  0  0  0  0  0  0  0
    4.3352    6.5242    0.0000 C   0  0  0  0  0  0  0  0  0  0  0  0
  1  2  1  0  0  0  0
  2  3  2  0  0  0  0
  2  4  1  0  0  0  0
  4 28  2  0  0  0  0
  4  5  1  0  0  0  0
  5  6  2  0  0  0  0
  6  7  1  0  0  0  0
  7  8  1  0  0  0  0
  8  9  1  0  0  0  0
  9 10  1  0  0  0  0
 10 11  1  6  0  0  0
 10 12  1  0  0  0  0
 10 13  1  0  0  0  0
 13 14  1  0  0  0  0
 14 19  1  0  0  0  0
 14 15  1  0  0  0  0
 15 16  1  0  0  0  0
 16 17  1  0  0  0  0
 17 18  1  0  0  0  0
 18 19  1  0  0  0  0
 17 20  1  0  0  0  0
 20 25  2  0  0  0  0
 20 21  1  0  0  0  0
 21 22  2  0  0  0  0
 22 23  1  0  0  0  0
 23 24  2  0  0  0  0
 24 25  1  0  0  0  0
 25 26  1  0  0  0  0
  7 27  2  0  0  0  0
 27 28  1  0  0  0  0
M  END
> <ID>
1591178

$$$$
1591179
  -OEChem-05171416412D

 29 31  0     1  0  0  0  0  0999 V2000
    6.0753    3.5229    0.0000 C   0  0  0  0  0  0  0  0  0  0  0  0
    6.0694    4.5228    0.0000 C   0  0  0  0  0  0  0  0  0  0  0  0
    6.9325    5.0279    0.0000 O   0  0  0  0  0  0  0  0  0  0  0  0
    5.2005    5.0177    0.0000 C   0  0  0  0  0  0  0  0  0  0  0  0
    5.1975    6.0229    0.0000 C   0  0  0  0  0  0  0  0  0  0  0  0
    4.3285    6.5179    0.0000 C   0  0  0  0  0  0  0  0  0  0  0  0
    3.4625    6.0178    0.0000 C   0  0  0  0  0  0  0  0  0  0  0  0
    3.4655    5.0126    0.0000 C   0  0  0  0  0  0  0  0  0  0  0  0
    2.5995    4.5126    0.0000 O   0  0  0  0  0  0  0  0  0  0  0  0
    2.5995    3.5126    0.0000 C   0  0  0  0  0  0  0  0  0  0  0  0
    1.7334    3.0126    0.0000 C   0  0  2  0  0  0  0  0  0  0  0  0
    2.2334    2.1466    0.0000 H   0  0  0  0  0  0  0  0  0  0  0  0
    1.2334    3.8786    0.0000 O   0  0  0  0  0  0  0  0  0  0  0  0
    0.8674    2.5126    0.0000 C   0  0  0  0  0  0  0  0  0  0  0  0
    0.8674    1.5126    0.0000 N   0  0  0  0  0  0  0  0  0  0  0  0
    0.0000    1.0051    0.0000 C   0  0  0  0  0  0  0  0  0  0  0  0
    0.0000    0.0000    0.0000 C   0  0  0  0  0  0  0  0  0  0  0  0
    0.8674   -0.4976    0.0000 N   0  0  0  0  0  0  0  0  0  0  0  0
    1.7348    0.0000    0.0000 C   0  0  0  0  0  0  0  0  0  0  0  0
    1.7348    1.0051    0.0000 C   0  0  0  0  0  0  0  0  0  0  0  0
    0.8674   -1.4976    0.0000 C   0  0  0  0  0  0  0  0  0  0  0  0
   -0.0046   -1.9976    0.0000 C   0  0  0  0  0  0  0  0  0  0  0  0
   -0.0047   -2.9977    0.0000 C   0  0  0  0  0  0  0  0  0  0  0  0
    0.8585   -3.5027    0.0000 C   0  0  0  0  0  0  0  0  0  0  0  0
    1.7305   -3.0027    0.0000 C   0  0  0  0  0  0  0  0  0  0  0  0
    2.5935   -3.5078    0.0000 C   0  0  0  0  0  0  0  0  0  0  0  0
    1.7394   -1.9976    0.0000 C   0  0  0  0  0  0  0  0  0  0  0  0
    2.6069   -1.5002    0.0000 C   0  0  0  0  0  0  0  0  0  0  0  0
    4.3345    4.5075    0.0000 C   0  0  0  0  0  0  0  0  0  0  0  0
  1  2  1  0  0  0  0
  2  3  2  0  0  0  0
  2  4  1  0  0  0  0
  4 29  2  0  0  0  0
  4  5  1  0  0  0  0
  5  6  2  0  0  0  0
  6  7  1  0  0  0  0
  7  8  2  0  0  0  0
  8  9  1  0  0  0  0
  9 10  1  0  0  0  0
 10 11  1  0  0  0  0
 11 12  1  6  0  0  0
 11 13  1  0  0  0  0
 11 14  1  0  0  0  0
 14 15  1  0  0  0  0
 15 20  1  0  0  0  0
 15 16  1  0  0  0  0
 16 17  1  0  0  0  0
 17 18  1  0  0  0  0
 18 19  1  0  0  0  0
 19 20  1  0  0  0  0
 18 21  1  0  0  0  0
 21 27  2  0  0  0  0
 21 22  1  0  0  0  0
 22 23  2  0  0  0  0
 23 24  1  0  0  0  0
 24 25  2  0  0  0  0
 25 26  1  0  0  0  0
 25 27  1  0  0  0  0
 27 28  1  0  0  0  0
  8 29  1  0  0  0  0
M  END
> <ID>
1591179

$$$$
1591180
  -OEChem-05171416412D

 27 30  0     1  0  0  0  0  0999 V2000
   -0.8660    3.5104    0.0000 O   0  0  0  0  0  0  0  0  0  0  0  0
   -0.0000    3.0104    0.0000 C   0  0  0  0  0  0  0  0  0  0  0  0
    0.8660    3.5104    0.0000 C   0  0  2  0  0  0  0  0  0  0  0  0
    0.2783    4.3194    0.0000 H   0  0  0  0  0  0  0  0  0  0  0  0
    1.2756    2.5905    0.0000 O   0  0  0  0  0  0  0  0  0  0  0  0
    2.2772    2.6956    0.0000 C   0  0  0  0  0  0  0  0  0  0  0  0
    3.0206    2.0181    0.0000 C   0  0  0  0  0  0  0  0  0  0  0  0
    3.9752    2.3345    0.0000 C   0  0  0  0  0  0  0  0  0  0  0  0
    4.1844    3.3183    0.0000 C   0  0  0  0  0  0  0  0  0  0  0  0
    3.4390    3.9857    0.0000 C   0  0  0  0  0  0  0  0  0  0  0  0
    2.4867    3.6805    0.0000 C   0  0  0  0  0  0  0  0  0  0  0  0
    1.6145    4.1843    0.0000 C   0  0  2  0  0  0  0  0  0  0  0  0
    0.8715    4.8535    0.0000 H   0  0  0  0  0  0  0  0  0  0  0  0
    2.2025    4.9932    0.0000 C   0  0  0  0  0  0  0  0  0  0  0  0
    1.7958    5.9068    0.0000 C   0  0  0  0  0  0  0  0  0  0  0  0
    2.3837    6.7157    0.0000 C   0  0  0  0  0  0  0  0  0  0  0  0
    1.9723    7.6329    0.0000 C   0  0  0  0  0  0  0  0  0  0  0  0
    2.5602    8.4419    0.0000 C   0  0  0  0  0  0  0  0  0  0  0  0
    3.5553    8.3430    0.0000 C   0  0  0  0  0  0  0  0  0  0  0  0
    3.9668    7.4259    0.0000 C   0  0  0  0  0  0  0  0  0  0  0  0
    3.3831    6.6076    0.0000 C   0  0  0  0  0  0  0  0  0  0  0  0
   -0.0000    2.0104    0.0000 N   0  0  0  0  0  0  0  0  0  0  0  0
   -0.8675    1.5027    0.0000 C   0  0  0  0  0  0  0  0  0  0  0  0
   -0.8675    0.4975    0.0000 C   0  0  0  0  0  0  0  0  0  0  0  0
    0.0000    0.0000    0.0000 C   0  0  0  0  0  0  0  0  0  0  0  0
    0.8675    0.4975    0.0000 C   0  0  0  0  0  0  0  0  0  0  0  0
    0.8675    1.5027    0.0000 C   0  0  0  0  0  0  0  0  0  0  0  0
  1  2  2  0  0  0  0
  2  3  1  0  0  0  0
  3  4  1  6  0  0  0
  3 12  1  0  0  0  0
  3  5  1  0  0  0  0
  5  6  1  0  0  0  0
  6 11  2  0  0  0  0
  6  7  1  0  0  0  0
  7  8  2  0  0  0  0
  8  9  1  0  0  0  0
  9 10  2  0  0  0  0
 10 11  1  0  0  0  0
 11 12  1  0  0  0  0
 12 13  1  6  0  0  0
 12 14  1  0  0  0  0
 14 15  1  0  0  0  0
 15 16  1  0  0  0  0
 16 21  2  0  0  0  0
 16 17  1  0  0  0  0
 17 18  2  0  0  0  0
 18 19  1  0  0  0  0
 19 20  2  0  0  0  0
 20 21  1  0  0  0  0
  2 22  1  0  0  0  0
 22 27  1  0  0  0  0
 22 23  1  0  0  0  0
 23 24  1  0  0  0  0
 24 25  1  0  0  0  0
 25 26  1  0  0  0  0
 26 27  1  0  0  0  0
M  END
> <ID>
1591180

$$$$
1591181
  -OEChem-05171416412D

 20 22  0     1  0  0  0  0  0999 V2000
    2.2025    4.9932    0.0000 C   0  0  0  0  0  0  0  0  0  0  0  0
    1.6145    4.1843    0.0000 C   0  0  2  0  0  0  0  0  0  0  0  0
    0.8715    4.8535    0.0000 H   0  0  0  0  0  0  0  0  0  0  0  0
    0.8660    3.5104    0.0000 C   0  0  1  0  0  0  0  0  0  0  0  0
    0.2783    4.3194    0.0000 H   0  0  0  0  0  0  0  0  0  0  0  0
    1.2756    2.5905    0.0000 O   0  0  0  0  0  0  0  0  0  0  0  0
    2.2772    2.6956    0.0000 C   0  0  0  0  0  0  0  0  0  0  0  0
    3.0206    2.0181    0.0000 C   0  0  0  0  0  0  0  0  0  0  0  0
    3.9752    2.3345    0.0000 C   0  0  0  0  0  0  0  0  0  0  0  0
    4.1844    3.3183    0.0000 C   0  0  0  0  0  0  0  0  0  0  0  0
    3.4390    3.9857    0.0000 C   0  0  0  0  0  0  0  0  0  0  0  0
    2.4867    3.6805    0.0000 C   0  0  0  0  0  0  0  0  0  0  0  0
   -0.0000    3.0104    0.0000 C   0  0  0  0  0  0  0  0  0  0  0  0
   -0.8660    3.5104    0.0000 O   0  0  0  0  0  0  0  0  0  0  0  0
   -0.0000    2.0104    0.0000 N   0  0  0  0  0  0  0  0  0  0  0  0
   -0.8675    1.5027    0.0000 C   0  0  0  0  0  0  0  0  0  0  0  0
   -0.8675    0.4975    0.0000 C   0  0  0  0  0  0  0  0  0  0  0  0
    0.0000    0.0000    0.0000 C   0  0  0  0  0  0  0  0  0  0  0  0
    0.8675    0.4975    0.0000 C   0  0  0  0  0  0  0  0  0  0  0  0
    0.8675    1.5027    0.0000 C   0  0  0  0  0  0  0  0  0  0  0  0
  1  2  1  0  0  0  0
  2  3  1  6  0  0  0
  2 12  1  0  0  0  0
  2  4  1  0  0  0  0
  4  5  1  6  0  0  0
  4  6  1  0  0  0  0
  6  7  1  0  0  0  0
  7 12  2  0  0  0  0
  7  8  1  0  0  0  0
  8  9  2  0  0  0  0
  9 10  1  0  0  0  0
 10 11  2  0  0  0  0
 11 12  1  0  0  0  0
  4 13  1  0  0  0  0
 13 14  2  0  0  0  0
 13 15  1  0  0  0  0
 15 20  1  0  0  0  0
 15 16  1  0  0  0  0
 16 17  1  0  0  0  0
 17 18  1  0  0  0  0
 18 19  1  0  0  0  0
 19 20  1  0  0  0  0
M  END
> <ID>
1591181

$$$$
1591182
  -OEChem-05171416412D

 26 29  0     1  0  0  0  0  0999 V2000
    2.2025    4.9932    0.0000 C   0  0  0  0  0  0  0  0  0  0  0  0
    1.7958    5.9068    0.0000 C   0  0  0  0  0  0  0  0  0  0  0  0
    2.3837    6.7157    0.0000 C   0  0  0  0  0  0  0  0  0  0  0  0
    3.3831    6.6076    0.0000 C   0  0  0  0  0  0  0  0  0  0  0  0
    3.9711    7.4165    0.0000 C   0  0  0  0  0  0  0  0  0  0  0  0
    3.5698    8.3325    0.0000 C   0  0  0  0  0  0  0  0  0  0  0  0
    2.5704    8.4406    0.0000 C   0  0  0  0  0  0  0  0  0  0  0  0
    1.9723    7.6328    0.0000 C   0  0  0  0  0  0  0  0  0  0  0  0
    1.6145    4.1843    0.0000 C   0  0  2  0  0  0  0  0  0  0  0  0
    0.8715    4.8535    0.0000 H   0  0  0  0  0  0  0  0  0  0  0  0
    0.8660    3.5104    0.0000 C   0  0  2  0  0  0  0  0  0  0  0  0
    0.2783    4.3194    0.0000 H   0  0  0  0  0  0  0  0  0  0  0  0
   -0.0000    3.0104    0.0000 C   0  0  0  0  0  0  0  0  0  0  0  0
   -0.0000    2.0104    0.0000 N   0  0  0  0  0  0  0  0  0  0  0  0
   -0.8675    1.5027    0.0000 C   0  0  0  0  0  0  0  0  0  0  0  0
   -0.8675    0.4975    0.0000 C   0  0  0  0  0  0  0  0  0  0  0  0
    0.0000    0.0000    0.0000 C   0  0  0  0  0  0  0  0  0  0  0  0
    0.8675    0.4975    0.0000 C   0  0  0  0  0  0  0  0  0  0  0  0
    0.8675    1.5027    0.0000 C   0  0  0  0  0  0  0  0  0  0  0  0
    1.2756    2.5905    0.0000 O   0  0  0  0  0  0  0  0  0  0  0  0
    2.2772    2.6956    0.0000 C   0  0  0  0  0  0  0  0  0  0  0  0
    3.0206    2.0181    0.0000 C   0  0  0  0  0  0  0  0  0  0  0  0
    3.9752    2.3345    0.0000 C   0  0  0  0  0  0  0  0  0  0  0  0
    4.1844    3.3183    0.0000 C   0  0  0  0  0  0  0  0  0  0  0  0
    3.4390    3.9857    0.0000 C   0  0  0  0  0  0  0  0  0  0  0  0
    2.4867    3.6805    0.0000 C   0  0  0  0  0  0  0  0  0  0  0  0
  1  2  1  0  0  0  0
  2  3  1  0  0  0  0
  3  8  2  0  0  0  0
  3  4  1  0  0  0  0
  4  5  2  0  0  0  0
  5  6  1  0  0  0  0
  6  7  2  0  0  0  0
  7  8  1  0  0  0  0
  1  9  1  0  0  0  0
  9 10  1  6  0  0  0
  9 26  1  0  0  0  0
  9 11  1  0  0  0  0
 11 12  1  6  0  0  0
 11 13  1  0  0  0  0
 13 14  1  0  0  0  0
 14 19  1  0  0  0  0
 14 15  1  0  0  0  0
 15 16  1  0  0  0  0
 16 17  1  0  0  0  0
 17 18  1  0  0  0  0
 18 19  1  0  0  0  0
 11 20  1  0  0  0  0
 20 21  1  0  0  0  0
 21 26  2  0  0  0  0
 21 22  1  0  0  0  0
 22 23  2  0  0  0  0
 23 24  1  0  0  0  0
 24 25  2  0  0  0  0
 25 26  1  0  0  0  0
M  END
> <ID>
1591182

$$$$
1591183
  -OEChem-05171416412D

 19 21  0     1  0  0  0  0  0999 V2000
    2.2025    4.9932    0.0000 C   0  0  0  0  0  0  0  0  0  0  0  0
    1.6145    4.1843    0.0000 C   0  0  2  0  0  0  0  0  0  0  0  0
    0.8715    4.8535    0.0000 H   0  0  0  0  0  0  0  0  0  0  0  0
    0.8660    3.5104    0.0000 C   0  0  2  0  0  0  0  0  0  0  0  0
    0.2783    4.3194    0.0000 H   0  0  0  0  0  0  0  0  0  0  0  0
   -0.0000    3.0104    0.0000 C   0  0  0  0  0  0  0  0  0  0  0  0
   -0.0000    2.0104    0.0000 N   0  0  0  0  0  0  0  0  0  0  0  0
   -0.8675    1.5027    0.0000 C   0  0  0  0  0  0  0  0  0  0  0  0
   -0.8675    0.4975    0.0000 C   0  0  0  0  0  0  0  0  0  0  0  0
    0.0000    0.0000    0.0000 C   0  0  0  0  0  0  0  0  0  0  0  0
    0.8675    0.4975    0.0000 C   0  0  0  0  0  0  0  0  0  0  0  0
    0.8675    1.5027    0.0000 C   0  0  0  0  0  0  0  0  0  0  0  0
    1.2756    2.5905    0.0000 O   0  0  0  0  0  0  0  0  0  0  0  0
    2.2772    2.6956    0.0000 C   0  0  0  0  0  0  0  0  0  0  0  0
    3.0206    2.0181    0.0000 C   0  0  0  0  0  0  0  0  0  0  0  0
    3.9752    2.3345    0.0000 C   0  0  0  0  0  0  0  0  0  0  0  0
    4.1844    3.3183    0.0000 C   0  0  0  0  0  0  0  0  0  0  0  0
    3.4390    3.9857    0.0000 C   0  0  0  0  0  0  0  0  0  0  0  0
    2.4867    3.6805    0.0000 C   0  0  0  0  0  0  0  0  0  0  0  0
  1  2  1  0  0  0  0
  2  3  1  6  0  0  0
  2 19  1  0  0  0  0
  2  4  1  0  0  0  0
  4  5  1  6  0  0  0
  4  6  1  0  0  0  0
  6  7  1  0  0  0  0
  7 12  1  0  0  0  0
  7  8  1  0  0  0  0
  8  9  1  0  0  0  0
  9 10  1  0  0  0  0
 10 11  1  0  0  0  0
 11 12  1  0  0  0  0
  4 13  1  0  0  0  0
 13 14  1  0  0  0  0
 14 19  2  0  0  0  0
 14 15  1  0  0  0  0
 15 16  2  0  0  0  0
 16 17  1  0  0  0  0
 17 18  2  0  0  0  0
 18 19  1  0  0  0  0
M  END
> <ID>
1591183

$$$$
1591184
  -OEChem-05171416412D

 28 30  0     1  0  0  0  0  0999 V2000
    6.0753    3.5229    0.0000 C   0  0  0  0  0  0  0  0  0  0  0  0
    6.0694    4.5228    0.0000 C   0  0  0  0  0  0  0  0  0  0  0  0
    6.9325    5.0279    0.0000 O   0  0  0  0  0  0  0  0  0  0  0  0
    5.2005    5.0177    0.0000 C   0  0  0  0  0  0  0  0  0  0  0  0
    5.1975    6.0229    0.0000 C   0  0  0  0  0  0  0  0  0  0  0  0
    4.3285    6.5179    0.0000 C   0  0  0  0  0  0  0  0  0  0  0  0
    3.4625    6.0178    0.0000 C   0  0  0  0  0  0  0  0  0  0  0  0
    3.4655    5.0126    0.0000 C   0  0  0  0  0  0  0  0  0  0  0  0
    2.5995    4.5126    0.0000 O   0  0  0  0  0  0  0  0  0  0  0  0
    2.5995    3.5126    0.0000 C   0  0  0  0  0  0  0  0  0  0  0  0
    1.7334    3.0126    0.0000 C   0  0  2  0  0  0  0  0  0  0  0  0
    2.2334    2.1466    0.0000 H   0  0  0  0  0  0  0  0  0  0  0  0
    1.2334    3.8786    0.0000 O   0  0  0  0  0  0  0  0  0  0  0  0
    0.8674    2.5126    0.0000 C   0  0  0  0  0  0  0  0  0  0  0  0
    0.8674    1.5126    0.0000 N   0  0  0  0  0  0  0  0  0  0  0  0
    0.0000    1.0051    0.0000 C   0  0  0  0  0  0  0  0  0  0  0  0
    0.0000    0.0000    0.0000 C   0  0  0  0  0  0  0  0  0  0  0  0
    0.8674   -0.4976    0.0000 N   0  0  0  0  0  0  0  0  0  0  0  0
    1.7348    0.0000    0.0000 C   0  0  0  0  0  0  0  0  0  0  0  0
    1.7348    1.0051    0.0000 C   0  0  0  0  0  0  0  0  0  0  0  0
    0.8674   -1.4976    0.0000 C   0  0  0  0  0  0  0  0  0  0  0  0
    1.7327   -1.9989    0.0000 C   0  0  0  0  0  0  0  0  0  0  0  0
    1.7371   -2.9989    0.0000 C   0  0  0  0  0  0  0  0  0  0  0  0
    0.8673   -3.5028    0.0000 C   0  0  0  0  0  0  0  0  0  0  0  0
   -0.0069   -3.0066    0.0000 C   0  0  0  0  0  0  0  0  0  0  0  0
   -0.0024   -2.0015    0.0000 C   0  0  0  0  0  0  0  0  0  0  0  0
   -0.8677   -1.5002    0.0000 C   0  0  0  0  0  0  0  0  0  0  0  0
    4.3345    4.5075    0.0000 C   0  0  0  0  0  0  0  0  0  0  0  0
  1  2  1  0  0  0  0
  2  3  2  0  0  0  0
  2  4  1  0  0  0  0
  4 28  2  0  0  0  0
  4  5  1  0  0  0  0
  5  6  2  0  0  0  0
  6  7  1  0  0  0  0
  7  8  2  0  0  0  0
  8  9  1  0  0  0  0
  9 10  1  0  0  0  0
 10 11  1  0  0  0  0
 11 12  1  6  0  0  0
 11 13  1  0  0  0  0
 11 14  1  0  0  0  0
 14 15  1  0  0  0  0
 15 20  1  0  0  0  0
 15 16  1  0  0  0  0
 16 17  1  0  0  0  0
 17 18  1  0  0  0  0
 18 19  1  0  0  0  0
 19 20  1  0  0  0  0
 18 21  1  0  0  0  0
 21 26  2  0  0  0  0
 21 22  1  0  0  0  0
 22 23  2  0  0  0  0
 23 24  1  0  0  0  0
 24 25  2  0  0  0  0
 25 26  1  0  0  0  0
 26 27  1  0  0  0  0
  8 28  1  0  0  0  0
M  END
> <ID>
1591184

$$$$
1591185
  -OEChem-05171416412D

 29 31  0     1  0  0  0  0  0999 V2000
    2.5942    7.5165    0.0000 C   0  0  0  0  0  0  0  0  0  0  0  0
    2.5957    6.5165    0.0000 C   0  0  0  0  0  0  0  0  0  0  0  0
    1.7305    6.0152    0.0000 O   0  0  0  0  0  0  0  0  0  0  0  0
    3.4625    6.0178    0.0000 C   0  0  0  0  0  0  0  0  0  0  0  0
    4.3285    6.5179    0.0000 C   0  0  0  0  0  0  0  0  0  0  0  0
    5.1975    6.0229    0.0000 C   0  0  0  0  0  0  0  0  0  0  0  0
    5.2005    5.0177    0.0000 C   0  0  0  0  0  0  0  0  0  0  0  0
    4.3345    4.5075    0.0000 C   0  0  0  0  0  0  0  0  0  0  0  0
    3.4655    5.0126    0.0000 C   0  0  0  0  0  0  0  0  0  0  0  0
    2.5995    4.5126    0.0000 O   0  0  0  0  0  0  0  0  0  0  0  0
    2.5995    3.5126    0.0000 C   0  0  0  0  0  0  0  0  0  0  0  0
    1.7334    3.0126    0.0000 C   0  0  2  0  0  0  0  0  0  0  0  0
    2.2334    2.1466    0.0000 H   0  0  0  0  0  0  0  0  0  0  0  0
    1.2334    3.8786    0.0000 O   0  0  0  0  0  0  0  0  0  0  0  0
    0.8674    2.5126    0.0000 C   0  0  0  0  0  0  0  0  0  0  0  0
    0.8674    1.5126    0.0000 N   0  0  0  0  0  0  0  0  0  0  0  0
    0.0000    1.0051    0.0000 C   0  0  0  0  0  0  0  0  0  0  0  0
    0.0000    0.0000    0.0000 C   0  0  0  0  0  0  0  0  0  0  0  0
    0.8674   -0.4976    0.0000 N   0  0  0  0  0  0  0  0  0  0  0  0
    1.7348    0.0000    0.0000 C   0  0  0  0  0  0  0  0  0  0  0  0
    1.7348    1.0051    0.0000 C   0  0  0  0  0  0  0  0  0  0  0  0
    0.8674   -1.4976    0.0000 C   0  0  0  0  0  0  0  0  0  0  0  0
   -0.0046   -1.9976    0.0000 C   0  0  0  0  0  0  0  0  0  0  0  0
   -0.0047   -2.9977    0.0000 C   0  0  0  0  0  0  0  0  0  0  0  0
    0.8585   -3.5027    0.0000 C   0  0  0  0  0  0  0  0  0  0  0  0
    1.7305   -3.0027    0.0000 C   0  0  0  0  0  0  0  0  0  0  0  0
    2.5935   -3.5078    0.0000 C   0  0  0  0  0  0  0  0  0  0  0  0
    1.7394   -1.9976    0.0000 C   0  0  0  0  0  0  0  0  0  0  0  0
    2.6069   -1.5002    0.0000 C   0  0  0  0  0  0  0  0  0  0  0  0
  1  2  1  0  0  0  0
  2  3  2  0  0  0  0
  2  4  1  0  0  0  0
  4  9  2  0  0  0  0
  4  5  1  0  0  0  0
  5  6  2  0  0  0  0
  6  7  1  0  0  0  0
  7  8  2  0  0  0  0
  8  9  1  0  0  0  0
  9 10  1  0  0  0  0
 10 11  1  0  0  0  0
 11 12  1  0  0  0  0
 12 13  1  6  0  0  0
 12 14  1  0  0  0  0
 12 15  1  0  0  0  0
 15 16  1  0  0  0  0
 16 21  1  0  0  0  0
 16 17  1  0  0  0  0
 17 18  1  0  0  0  0
 18 19  1  0  0  0  0
 19 20  1  0  0  0  0
 20 21  1  0  0  0  0
 19 22  1  0  0  0  0
 22 28  2  0  0  0  0
 22 23  1  0  0  0  0
 23 24  2  0  0  0  0
 24 25  1  0  0  0  0
 25 26  2  0  0  0  0
 26 27  1  0  0  0  0
 26 28  1  0  0  0  0
 28 29  1  0  0  0  0
M  END
> <ID>
1591185

$$$$
1591186
  -OEChem-05171416412D

 36 39  0     1  0  0  0  0  0999 V2000
    2.5935    4.5228    0.0000 C   0  0  0  0  0  0  0  0  0  0  0  0
    1.7305    4.0177    0.0000 C   0  0  0  0  0  0  0  0  0  0  0  0
    0.8585    4.5177    0.0000 C   0  0  0  0  0  0  0  0  0  0  0  0
   -0.0047    4.0127    0.0000 C   0  0  0  0  0  0  0  0  0  0  0  0
   -0.0046    3.0126    0.0000 C   0  0  0  0  0  0  0  0  0  0  0  0
    0.8674    2.5126    0.0000 C   0  0  0  0  0  0  0  0  0  0  0  0
    0.8674    1.5126    0.0000 N   0  0  0  0  0  0  0  0  0  0  0  0
    0.0000    1.0051    0.0000 C   0  0  0  0  0  0  0  0  0  0  0  0
    0.0000    0.0000    0.0000 C   0  0  0  0  0  0  0  0  0  0  0  0
    0.8674   -0.4976    0.0000 N   0  0  0  0  0  0  0  0  0  0  0  0
    0.8674   -1.4976    0.0000 C   0  0  0  0  0  0  0  0  0  0  0  0
    1.7334   -1.9976    0.0000 C   0  0  1  0  0  0  0  0  0  0  0  0
    2.2334   -1.1316    0.0000 H   0  0  0  0  0  0  0  0  0  0  0  0
    1.2334   -2.8636    0.0000 O   0  0  0  0  0  0  0  0  0  0  0  0
    2.5995   -2.4976    0.0000 C   0  0  0  0  0  0  0  0  0  0  0  0
    3.4655   -1.9976    0.0000 O   0  0  0  0  0  0  0  0  0  0  0  0
    4.3315   -2.4976    0.0000 C   0  0  0  0  0  0  0  0  0  0  0  0
    5.2005   -1.9924    0.0000 C   0  0  0  0  0  0  0  0  0  0  0  0
    6.0666   -2.4924    0.0000 C   0  0  0  0  0  0  0  0  0  0  0  0
    6.0725   -3.4924    0.0000 C   0  0  0  0  0  0  0  0  0  0  0  0
    5.2034   -3.9976    0.0000 C   0  0  0  0  0  0  0  0  0  0  0  0
    4.3285   -3.5027    0.0000 C   0  0  0  0  0  0  0  0  0  0  0  0
    6.9407   -3.9886    0.0000 C   0  0  0  0  0  0  0  0  0  0  0  0
    6.9451   -4.9886    0.0000 O   0  0  0  0  0  0  0  0  0  0  0  0
    7.8045   -3.4848    0.0000 C   0  0  0  0  0  0  0  0  0  0  0  0
    8.6727   -3.9810    0.0000 C   0  0  0  0  0  0  0  0  0  0  0  0
    9.5365   -3.4772    0.0000 C   0  0  0  0  0  0  0  0  0  0  0  0
    9.5292   -2.4720    0.0000 C   0  0  0  0  0  0  0  0  0  0  0  0
   10.3930   -1.9681    0.0000 C   0  0  0  0  0  0  0  0  0  0  0  0
   11.2641   -2.4593    0.0000 C   0  0  0  0  0  0  0  0  0  0  0  0
   11.2715   -3.4644    0.0000 C   0  0  0  0  0  0  0  0  0  0  0  0
   10.4077   -3.9785    0.0000 C   0  0  0  0  0  0  0  0  0  0  0  0
    1.7348    0.0000    0.0000 C   0  0  0  0  0  0  0  0  0  0  0  0
    1.7348    1.0051    0.0000 C   0  0  0  0  0  0  0  0  0  0  0  0
    1.7394    3.0126    0.0000 C   0  0  0  0  0  0  0  0  0  0  0  0
    2.6069    2.5152    0.0000 C   0  0  0  0  0  0  0  0  0  0  0  0
  1  2  1  0  0  0  0
  2 35  2  0  0  0  0
  2  3  1  0  0  0  0
  3  4  2  0  0  0  0
  4  5  1  0  0  0  0
  5  6  2  0  0  0  0
  6  7  1  0  0  0  0
  7 34  1  0  0  0  0
  7  8  1  0  0  0  0
  8  9  1  0  0  0  0
  9 10  1  0  0  0  0
 10 11  1  0  0  0  0
 11 12  1  0  0  0  0
 12 13  1  1  0  0  0
 12 14  1  0  0  0  0
 12 15  1  0  0  0  0
 15 16  1  0  0  0  0
 16 17  1  0  0  0  0
 17 22  2  0  0  0  0
 17 18  1  0  0  0  0
 18 19  2  0  0  0  0
 19 20  1  0  0  0  0
 20 21  2  0  0  0  0
 21 22  1  0  0  0  0
 20 23  1  0  0  0  0
 23 24  2  0  0  0  0
 23 25  1  0  0  0  0
 25 26  1  0  0  0  0
 26 27  1  0  0  0  0
 27 32  2  0  0  0  0
 27 28  1  0  0  0  0
 28 29  2  0  0  0  0
 29 30  1  0  0  0  0
 30 31  2  0  0  0  0
 31 32  1  0  0  0  0
 10 33  1  0  0  0  0
 33 34  1  0  0  0  0
  6 35  1  0  0  0  0
 35 36  1  0  0  0  0
M  END
> <ID>
1591186

$$$$
1591187
  -OEChem-05171416412D

 37 40  0     1  0  0  0  0  0999 V2000
    6.0753    3.5229    0.0000 C   0  0  0  0  0  0  0  0  0  0  0  0
    6.0694    4.5228    0.0000 O   0  0  0  0  0  0  0  0  0  0  0  0
    5.2005    5.0177    0.0000 C   0  0  0  0  0  0  0  0  0  0  0  0
    5.1975    6.0229    0.0000 C   0  0  0  0  0  0  0  0  0  0  0  0
    4.3285    6.5179    0.0000 C   0  0  0  0  0  0  0  0  0  0  0  0
    3.4625    6.0178    0.0000 C   0  0  0  0  0  0  0  0  0  0  0  0
    2.5957    6.5165    0.0000 C   0  0  0  0  0  0  0  0  0  0  0  0
    2.5942    7.5165    0.0000 O   0  0  0  0  0  0  0  0  0  0  0  0
    1.7305    6.0152    0.0000 C   0  0  0  0  0  0  0  0  0  0  0  0
    0.8637    6.5139    0.0000 C   0  0  0  0  0  0  0  0  0  0  0  0
   -0.0016    6.0126    0.0000 C   0  0  0  0  0  0  0  0  0  0  0  0
    0.0029    5.0074    0.0000 C   0  0  0  0  0  0  0  0  0  0  0  0
   -0.8624    4.5061    0.0000 C   0  0  0  0  0  0  0  0  0  0  0  0
   -1.7321    4.9997    0.0000 C   0  0  0  0  0  0  0  0  0  0  0  0
   -1.7366    6.0049    0.0000 C   0  0  0  0  0  0  0  0  0  0  0  0
   -0.8713    6.5164    0.0000 C   0  0  0  0  0  0  0  0  0  0  0  0
    3.4655    5.0126    0.0000 C   0  0  0  0  0  0  0  0  0  0  0  0
    2.5995    4.5126    0.0000 O   0  0  0  0  0  0  0  0  0  0  0  0
    2.5995    3.5126    0.0000 C   0  0  0  0  0  0  0  0  0  0  0  0
    1.7334    3.0126    0.0000 C   0  0  2  0  0  0  0  0  0  0  0  0
    2.2334    2.1466    0.0000 H   0  0  0  0  0  0  0  0  0  0  0  0
    1.2334    3.8786    0.0000 O   0  0  0  0  0  0  0  0  0  0  0  0
    0.8674    2.5126    0.0000 C   0  0  0  0  0  0  0  0  0  0  0  0
    0.8674    1.5126    0.0000 N   0  0  0  0  0  0  0  0  0  0  0  0
    0.0000    1.0051    0.0000 C   0  0  0  0  0  0  0  0  0  0  0  0
    0.0000    0.0000    0.0000 C   0  0  0  0  0  0  0  0  0  0  0  0
    0.8674   -0.4976    0.0000 N   0  0  0  0  0  0  0  0  0  0  0  0
    1.7348    0.0000    0.0000 C   0  0  0  0  0  0  0  0  0  0  0  0
    1.7348    1.0051    0.0000 C   0  0  0  0  0  0  0  0  0  0  0  0
    0.8674   -1.4976    0.0000 C   0  0  0  0  0  0  0  0  0  0  0  0
    1.7327   -1.9989    0.0000 C   0  0  0  0  0  0  0  0  0  0  0  0
    1.7371   -2.9989    0.0000 C   0  0  0  0  0  0  0  0  0  0  0  0
    0.8673   -3.5028    0.0000 C   0  0  0  0  0  0  0  0  0  0  0  0
   -0.0069   -3.0066    0.0000 C   0  0  0  0  0  0  0  0  0  0  0  0
   -0.0024   -2.0015    0.0000 C   0  0  0  0  0  0  0  0  0  0  0  0
   -0.8677   -1.5002    0.0000 C   0  0  0  0  0  0  0  0  0  0  0  0
    4.3345    4.5075    0.0000 C   0  0  0  0  0  0  0  0  0  0  0  0
  1  2  1  0  0  0  0
  2  3  1  0  0  0  0
  3 37  2  0  0  0  0
  3  4  1  0  0  0  0
  4  5  2  0  0  0  0
  5  6  1  0  0  0  0
  6  7  1  0  0  0  0
  7  8  2  0  0  0  0
  7  9  1  0  0  0  0
  9 10  1  0  0  0  0
 10 11  1  0  0  0  0
 11 16  2  0  0  0  0
 11 12  1  0  0  0  0
 12 13  2  0  0  0  0
 13 14  1  0  0  0  0
 14 15  2  0  0  0  0
 15 16  1  0  0  0  0
  6 17  2  0  0  0  0
 17 18  1  0  0  0  0
 18 19  1  0  0  0  0
 19 20  1  0  0  0  0
 20 21  1  6  0  0  0
 20 22  1  0  0  0  0
 20 23  1  0  0  0  0
 23 24  1  0  0  0  0
 24 29  1  0  0  0  0
 24 25  1  0  0  0  0
 25 26  1  0  0  0  0
 26 27  1  0  0  0  0
 27 28  1  0  0  0  0
 28 29  1  0  0  0  0
 27 30  1  0  0  0  0
 30 35  2  0  0  0  0
 30 31  1  0  0  0  0
 31 32  2  0  0  0  0
 32 33  1  0  0  0  0
 33 34  2  0  0  0  0
 34 35  1  0  0  0  0
 35 36  1  0  0  0  0
 17 37  1  0  0  0  0
M  END
> <ID>
1591187

$$$$
1591188
  -OEChem-05171416412D

 30 32  0     1  0  0  0  0  0999 V2000
    5.2079    4.0207    0.0000 C   0  0  0  0  0  0  0  0  0  0  0  0
    5.2020    5.0206    0.0000 O   0  0  0  0  0  0  0  0  0  0  0  0
    4.3331    5.5155    0.0000 C   0  0  0  0  0  0  0  0  0  0  0  0
    4.3301    6.5207    0.0000 C   0  0  0  0  0  0  0  0  0  0  0  0
    3.4611    7.0157    0.0000 C   0  0  0  0  0  0  0  0  0  0  0  0
    2.5951    6.5156    0.0000 C   0  0  0  0  0  0  0  0  0  0  0  0
    1.7283    7.0143    0.0000 C   0  0  0  0  0  0  0  0  0  0  0  0
    1.7268    8.0143    0.0000 O   0  0  0  0  0  0  0  0  0  0  0  0
    0.8631    6.5130    0.0000 C   0  0  0  0  0  0  0  0  0  0  0  0
   -0.0037    7.0117    0.0000 C   0  0  0  0  0  0  0  0  0  0  0  0
   -0.8690    6.5104    0.0000 C   0  0  0  0  0  0  0  0  0  0  0  0
   -0.8645    5.5052    0.0000 C   0  0  0  0  0  0  0  0  0  0  0  0
   -1.7298    5.0039    0.0000 C   0  0  0  0  0  0  0  0  0  0  0  0
   -2.5995    5.4975    0.0000 C   0  0  0  0  0  0  0  0  0  0  0  0
   -2.6040    6.5027    0.0000 C   0  0  0  0  0  0  0  0  0  0  0  0
   -1.7387    7.0142    0.0000 C   0  0  0  0  0  0  0  0  0  0  0  0
    2.5981    5.5104    0.0000 C   0  0  0  0  0  0  0  0  0  0  0  0
    1.7321    5.0104    0.0000 O   0  0  0  0  0  0  0  0  0  0  0  0
    1.7321    4.0104    0.0000 C   0  0  0  0  0  0  0  0  0  0  0  0
    0.8660    3.5104    0.0000 C   0  0  2  0  0  0  0  0  0  0  0  0
    1.3660    2.6444    0.0000 H   0  0  0  0  0  0  0  0  0  0  0  0
    0.3660    4.3764    0.0000 O   0  0  0  0  0  0  0  0  0  0  0  0
   -0.0000    3.0104    0.0000 C   0  0  0  0  0  0  0  0  0  0  0  0
   -0.0000    2.0104    0.0000 N   0  0  0  0  0  0  0  0  0  0  0  0
   -0.8675    1.5027    0.0000 C   0  0  0  0  0  0  0  0  0  0  0  0
   -0.8675    0.4975    0.0000 C   0  0  0  0  0  0  0  0  0  0  0  0
    0.0000    0.0000    0.0000 C   0  0  0  0  0  0  0  0  0  0  0  0
    0.8675    0.4975    0.0000 C   0  0  0  0  0  0  0  0  0  0  0  0
    0.8675    1.5027    0.0000 C   0  0  0  0  0  0  0  0  0  0  0  0
    3.4671    5.0053    0.0000 C   0  0  0  0  0  0  0  0  0  0  0  0
  1  2  1  0  0  0  0
  2  3  1  0  0  0  0
  3 30  2  0  0  0  0
  3  4  1  0  0  0  0
  4  5  2  0  0  0  0
  5  6  1  0  0  0  0
  6  7  1  0  0  0  0
  7  8  2  0  0  0  0
  7  9  1  0  0  0  0
  9 10  1  0  0  0  0
 10 11  1  0  0  0  0
 11 16  2  0  0  0  0
 11 12  1  0  0  0  0
 12 13  2  0  0  0  0
 13 14  1  0  0  0  0
 14 15  2  0  0  0  0
 15 16  1  0  0  0  0
  6 17  2  0  0  0  0
 17 18  1  0  0  0  0
 18 19  1  0  0  0  0
 19 20  1  0  0  0  0
 20 21  1  6  0  0  0
 20 22  1  0  0  0  0
 20 23  1  0  0  0  0
 23 24  1  0  0  0  0
 24 29  1  0  0  0  0
 24 25  1  0  0  0  0
 25 26  1  0  0  0  0
 26 27  1  0  0  0  0
 27 28  1  0  0  0  0
 28 29  1  0  0  0  0
 17 30  1  0  0  0  0
M  END
> <ID>
1591188

$$$$
1591189
  -OEChem-05171416412D

 38 41  0     1  0  0  0  0  0999 V2000
    0.8612   12.5229    0.0000 C   0  0  0  0  0  0  0  0  0  0  0  0
    1.7257   12.0203    0.0000 N   0  0  0  0  0  0  0  0  0  0  0  0
    2.5932   12.5178    0.0000 C   0  0  0  0  0  0  0  0  0  0  0  0
    1.7228   11.0203    0.0000 C   0  0  0  0  0  0  0  0  0  0  0  0
    2.5934   10.5178    0.0000 C   0  0  0  0  0  0  0  0  0  0  0  0
    2.5905    9.5178    0.0000 C   0  0  0  0  0  0  0  0  0  0  0  0
    1.7260    9.0152    0.0000 C   0  0  0  0  0  0  0  0  0  0  0  0
    1.7275    8.0152    0.0000 C   0  0  0  0  0  0  0  0  0  0  0  0
    2.5942    7.5165    0.0000 C   0  0  0  0  0  0  0  0  0  0  0  0
    2.5957    6.5165    0.0000 C   0  0  0  0  0  0  0  0  0  0  0  0
    1.7305    6.0152    0.0000 O   0  0  0  0  0  0  0  0  0  0  0  0
    3.4625    6.0178    0.0000 C   0  0  0  0  0  0  0  0  0  0  0  0
    4.3285    6.5179    0.0000 C   0  0  0  0  0  0  0  0  0  0  0  0
    5.1975    6.0229    0.0000 C   0  0  0  0  0  0  0  0  0  0  0  0
    5.2005    5.0177    0.0000 C   0  0  0  0  0  0  0  0  0  0  0  0
    4.3345    4.5075    0.0000 C   0  0  0  0  0  0  0  0  0  0  0  0
    3.4655    5.0126    0.0000 C   0  0  0  0  0  0  0  0  0  0  0  0
    2.5995    4.5126    0.0000 O   0  0  0  0  0  0  0  0  0  0  0  0
    2.5995    3.5126    0.0000 C   0  0  0  0  0  0  0  0  0  0  0  0
    1.7334    3.0126    0.0000 C   0  0  2  0  0  0  0  0  0  0  0  0
    2.2334    2.1466    0.0000 H   0  0  0  0  0  0  0  0  0  0  0  0
    1.2334    3.8786    0.0000 O   0  0  0  0  0  0  0  0  0  0  0  0
    0.8674    2.5126    0.0000 C   0  0  0  0  0  0  0  0  0  0  0  0
    0.8674    1.5126    0.0000 N   0  0  0  0  0  0  0  0  0  0  0  0
    0.0000    1.0051    0.0000 C   0  0  0  0  0  0  0  0  0  0  0  0
    0.0000    0.0000    0.0000 C   0  0  0  0  0  0  0  0  0  0  0  0
    0.8674   -0.4976    0.0000 N   0  0  0  0  0  0  0  0  0  0  0  0
    1.7348    0.0000    0.0000 C   0  0  0  0  0  0  0  0  0  0  0  0
    1.7348    1.0051    0.0000 C   0  0  0  0  0  0  0  0  0  0  0  0
    0.8674   -1.4976    0.0000 C   0  0  0  0  0  0  0  0  0  0  0  0
    1.7327   -1.9989    0.0000 C   0  0  0  0  0  0  0  0  0  0  0  0
    1.7371   -2.9989    0.0000 C   0  0  0  0  0  0  0  0  0  0  0  0
    0.8673   -3.5028    0.0000 C   0  0  0  0  0  0  0  0  0  0  0  0
   -0.0069   -3.0066    0.0000 C   0  0  0  0  0  0  0  0  0  0  0  0
   -0.0024   -2.0015    0.0000 C   0  0  0  0  0  0  0  0  0  0  0  0
   -0.8677   -1.5002    0.0000 C   0  0  0  0  0  0  0  0  0  0  0  0
    0.8554    9.5178    0.0000 C   0  0  0  0  0  0  0  0  0  0  0  0
    0.8494   10.5229    0.0000 C   0  0  0  0  0  0  0  0  0  0  0  0
  1  2  1  0  0  0  0
  2  3  1  0  0  0  0
  2  4  1  0  0  0  0
  4 38  2  0  0  0  0
  4  5  1  0  0  0  0
  5  6  2  0  0  0  0
  6  7  1  0  0  0  0
  7  8  1  0  0  0  0
  8  9  1  0  0  0  0
  9 10  1  0  0  0  0
 10 11  2  0  0  0  0
 10 12  1  0  0  0  0
 12 17  2  0  0  0  0
 12 13  1  0  0  0  0
 13 14  2  0  0  0  0
 14 15  1  0  0  0  0
 15 16  2  0  0  0  0
 16 17  1  0  0  0  0
 17 18  1  0  0  0  0
 18 19  1  0  0  0  0
 19 20  1  0  0  0  0
 20 21  1  6  0  0  0
 20 22  1  0  0  0  0
 20 23  1  0  0  0  0
 23 24  1  0  0  0  0
 24 29  1  0  0  0  0
 24 25  1  0  0  0  0
 25 26  1  0  0  0  0
 26 27  1  0  0  0  0
 27 28  1  0  0  0  0
 28 29  1  0  0  0  0
 27 30  1  0  0  0  0
 30 35  2  0  0  0  0
 30 31  1  0  0  0  0
 31 32  2  0  0  0  0
 32 33  1  0  0  0  0
 33 34  2  0  0  0  0
 34 35  1  0  0  0  0
 35 36  1  0  0  0  0
  7 37  2  0  0  0  0
 37 38  1  0  0  0  0
M  END
> <ID>
1591189

$$$$
1591190
  -OEChem-05171416412D

 30 32  0     1  0  0  0  0  0999 V2000
    6.9341    6.0227    0.0000 C   0  0  0  0  0  0  0  0  0  0  0  0
    6.0659    6.5189    0.0000 O   0  0  0  0  0  0  0  0  0  0  0  0
    5.2021    6.0151    0.0000 C   0  0  0  0  0  0  0  0  0  0  0  0
    4.3308    6.5164    0.0000 C   0  0  0  0  0  0  0  0  0  0  0  0
    3.4669    6.0126    0.0000 C   0  0  0  0  0  0  0  0  0  0  0  0
    3.4655    5.0126    0.0000 C   0  0  0  0  0  0  0  0  0  0  0  0
    2.5995    4.5126    0.0000 O   0  0  0  0  0  0  0  0  0  0  0  0
    2.5995    3.5126    0.0000 C   0  0  0  0  0  0  0  0  0  0  0  0
    1.7334    3.0126    0.0000 C   0  0  2  0  0  0  0  0  0  0  0  0
    2.2334    2.1466    0.0000 H   0  0  0  0  0  0  0  0  0  0  0  0
    1.2334    3.8786    0.0000 O   0  0  0  0  0  0  0  0  0  0  0  0
    0.8674    2.5126    0.0000 C   0  0  0  0  0  0  0  0  0  0  0  0
    0.8674    1.5126    0.0000 N   0  0  0  0  0  0  0  0  0  0  0  0
    0.0000    1.0051    0.0000 C   0  0  0  0  0  0  0  0  0  0  0  0
    0.0000    0.0000    0.0000 C   0  0  0  0  0  0  0  0  0  0  0  0
    0.8674   -0.4976    0.0000 N   0  0  0  0  0  0  0  0  0  0  0  0
    1.7348    0.0000    0.0000 C   0  0  0  0  0  0  0  0  0  0  0  0
    1.7348    1.0051    0.0000 C   0  0  0  0  0  0  0  0  0  0  0  0
    0.8674   -1.4976    0.0000 C   0  0  0  0  0  0  0  0  0  0  0  0
    1.7327   -1.9989    0.0000 C   0  0  0  0  0  0  0  0  0  0  0  0
    1.7371   -2.9989    0.0000 C   0  0  0  0  0  0  0  0  0  0  0  0
    0.8673   -3.5028    0.0000 C   0  0  0  0  0  0  0  0  0  0  0  0
   -0.0069   -3.0066    0.0000 C   0  0  0  0  0  0  0  0  0  0  0  0
   -0.0024   -2.0015    0.0000 C   0  0  0  0  0  0  0  0  0  0  0  0
   -0.8677   -1.5002    0.0000 C   0  0  0  0  0  0  0  0  0  0  0  0
    4.3367    4.5113    0.0000 C   0  0  0  0  0  0  0  0  0  0  0  0
    5.2094    5.0100    0.0000 C   0  0  0  0  0  0  0  0  0  0  0  0
    4.3352    3.5113    0.0000 C   0  0  0  0  0  0  0  0  0  0  0  0
    3.4685    3.0126    0.0000 O   0  0  0  0  0  0  0  0  0  0  0  0
    5.2005    3.0100    0.0000 C   0  0  0  0  0  0  0  0  0  0  0  0
  1  2  1  0  0  0  0
  2  3  1  0  0  0  0
  3 27  2  0  0  0  0
  3  4  1  0  0  0  0
  4  5  2  0  0  0  0
  5  6  1  0  0  0  0
  6  7  1  0  0  0  0
  7  8  1  0  0  0  0
  8  9  1  0  0  0  0
  9 10  1  6  0  0  0
  9 11  1  0  0  0  0
  9 12  1  0  0  0  0
 12 13  1  0  0  0  0
 13 18  1  0  0  0  0
 13 14  1  0  0  0  0
 14 15  1  0  0  0  0
 15 16  1  0  0  0  0
 16 17  1  0  0  0  0
 17 18  1  0  0  0  0
 16 19  1  0  0  0  0
 19 24  2  0  0  0  0
 19 20  1  0  0  0  0
 20 21  2  0  0  0  0
 21 22  1  0  0  0  0
 22 23  2  0  0  0  0
 23 24  1  0  0  0  0
 24 25  1  0  0  0  0
  6 26  2  0  0  0  0
 26 27  1  0  0  0  0
 26 28  1  0  0  0  0
 28 29  2  0  0  0  0
 28 30  1  0  0  0  0
M  END
> <ID>
1591190

$$$$
1591191
  -OEChem-05171416412D

 29 31  0     1  0  0  0  0  0999 V2000
    3.4685    3.0126    0.0000 C   0  0  0  0  0  0  0  0  0  0  0  0
    4.3352    3.5113    0.0000 C   0  0  0  0  0  0  0  0  0  0  0  0
    5.2005    3.0100    0.0000 O   0  0  0  0  0  0  0  0  0  0  0  0
    4.3367    4.5113    0.0000 C   0  0  0  0  0  0  0  0  0  0  0  0
    5.2094    5.0100    0.0000 C   0  0  0  0  0  0  0  0  0  0  0  0
    5.2021    6.0151    0.0000 C   0  0  0  0  0  0  0  0  0  0  0  0
    6.0659    6.5189    0.0000 C   0  0  0  0  0  0  0  0  0  0  0  0
    4.3308    6.5164    0.0000 C   0  0  0  0  0  0  0  0  0  0  0  0
    3.4669    6.0126    0.0000 C   0  0  0  0  0  0  0  0  0  0  0  0
    3.4655    5.0126    0.0000 C   0  0  0  0  0  0  0  0  0  0  0  0
    2.5995    4.5126    0.0000 O   0  0  0  0  0  0  0  0  0  0  0  0
    2.5995    3.5126    0.0000 C   0  0  0  0  0  0  0  0  0  0  0  0
    1.7334    3.0126    0.0000 C   0  0  2  0  0  0  0  0  0  0  0  0
    2.2334    2.1466    0.0000 H   0  0  0  0  0  0  0  0  0  0  0  0
    1.2334    3.8786    0.0000 O   0  0  0  0  0  0  0  0  0  0  0  0
    0.8674    2.5126    0.0000 C   0  0  0  0  0  0  0  0  0  0  0  0
    0.8674    1.5126    0.0000 N   0  0  0  0  0  0  0  0  0  0  0  0
    0.0000    1.0051    0.0000 C   0  0  0  0  0  0  0  0  0  0  0  0
    0.0000    0.0000    0.0000 C   0  0  0  0  0  0  0  0  0  0  0  0
    0.8674   -0.4976    0.0000 N   0  0  0  0  0  0  0  0  0  0  0  0
    1.7348    0.0000    0.0000 C   0  0  0  0  0  0  0  0  0  0  0  0
    1.7348    1.0051    0.0000 C   0  0  0  0  0  0  0  0  0  0  0  0
    0.8674   -1.4976    0.0000 C   0  0  0  0  0  0  0  0  0  0  0  0
    1.7327   -1.9989    0.0000 C   0  0  0  0  0  0  0  0  0  0  0  0
    1.7371   -2.9989    0.0000 C   0  0  0  0  0  0  0  0  0  0  0  0
    0.8673   -3.5028    0.0000 C   0  0  0  0  0  0  0  0  0  0  0  0
   -0.0069   -3.0066    0.0000 C   0  0  0  0  0  0  0  0  0  0  0  0
   -0.0024   -2.0015    0.0000 C   0  0  0  0  0  0  0  0  0  0  0  0
   -0.8677   -1.5002    0.0000 C   0  0  0  0  0  0  0  0  0  0  0  0
  1  2  1  0  0  0  0
  2  3  2  0  0  0  0
  2  4  1  0  0  0  0
  4 10  2  0  0  0  0
  4  5  1  0  0  0  0
  5  6  2  0  0  0  0
  6  7  1  0  0  0  0
  6  8  1  0  0  0  0
  8  9  2  0  0  0  0
  9 10  1  0  0  0  0
 10 11  1  0  0  0  0
 11 12  1  0  0  0  0
 12 13  1  0  0  0  0
 13 14  1  6  0  0  0
 13 15  1  0  0  0  0
 13 16  1  0  0  0  0
 16 17  1  0  0  0  0
 17 22  1  0  0  0  0
 17 18  1  0  0  0  0
 18 19  1  0  0  0  0
 19 20  1  0  0  0  0
 20 21  1  0  0  0  0
 21 22  1  0  0  0  0
 20 23  1  0  0  0  0
 23 28  2  0  0  0  0
 23 24  1  0  0  0  0
 24 25  2  0  0  0  0
 25 26  1  0  0  0  0
 26 27  2  0  0  0  0
 27 28  1  0  0  0  0
 28 29  1  0  0  0  0
M  END
> <ID>
1591191

$$$$
1591192
  -OEChem-05171416412D

 32 34  0     1  0  0  0  0  0999 V2000
    6.9295    6.0305    0.0000 C   0  0  0  0  0  0  0  0  0  0  0  0
    6.0613    6.5267    0.0000 C   0  0  0  0  0  0  0  0  0  0  0  0
    6.0569    7.5267    0.0000 O   0  0  0  0  0  0  0  0  0  0  0  0
    5.1975    6.0229    0.0000 C   0  0  0  0  0  0  0  0  0  0  0  0
    4.3285    6.5179    0.0000 C   0  0  0  0  0  0  0  0  0  0  0  0
    3.4625    6.0178    0.0000 C   0  0  0  0  0  0  0  0  0  0  0  0
    2.5957    6.5165    0.0000 C   0  0  0  0  0  0  0  0  0  0  0  0
    2.5942    7.5165    0.0000 O   0  0  0  0  0  0  0  0  0  0  0  0
    1.7305    6.0152    0.0000 C   0  0  0  0  0  0  0  0  0  0  0  0
    3.4655    5.0126    0.0000 C   0  0  0  0  0  0  0  0  0  0  0  0
    2.5995    4.5126    0.0000 O   0  0  0  0  0  0  0  0  0  0  0  0
    2.5995    3.5126    0.0000 C   0  0  0  0  0  0  0  0  0  0  0  0
    1.7334    3.0126    0.0000 C   0  0  2  0  0  0  0  0  0  0  0  0
    2.2334    2.1466    0.0000 H   0  0  0  0  0  0  0  0  0  0  0  0
    1.2334    3.8786    0.0000 O   0  0  0  0  0  0  0  0  0  0  0  0
    0.8674    2.5126    0.0000 C   0  0  0  0  0  0  0  0  0  0  0  0
    0.8674    1.5126    0.0000 N   0  0  0  0  0  0  0  0  0  0  0  0
    0.0000    1.0051    0.0000 C   0  0  0  0  0  0  0  0  0  0  0  0
    0.0000    0.0000    0.0000 C   0  0  0  0  0  0  0  0  0  0  0  0
    0.8674   -0.4976    0.0000 N   0  0  0  0  0  0  0  0  0  0  0  0
    1.7348    0.0000    0.0000 C   0  0  0  0  0  0  0  0  0  0  0  0
    1.7348    1.0051    0.0000 C   0  0  0  0  0  0  0  0  0  0  0  0
    0.8674   -1.4976    0.0000 C   0  0  0  0  0  0  0  0  0  0  0  0
    1.7327   -1.9989    0.0000 C   0  0  0  0  0  0  0  0  0  0  0  0
    1.7371   -2.9989    0.0000 C   0  0  0  0  0  0  0  0  0  0  0  0
    0.8673   -3.5028    0.0000 C   0  0  0  0  0  0  0  0  0  0  0  0
   -0.0069   -3.0066    0.0000 C   0  0  0  0  0  0  0  0  0  0  0  0
   -0.0024   -2.0015    0.0000 C   0  0  0  0  0  0  0  0  0  0  0  0
   -0.8677   -1.5002    0.0000 C   0  0  0  0  0  0  0  0  0  0  0  0
    4.3345    4.5075    0.0000 C   0  0  0  0  0  0  0  0  0  0  0  0
    5.2005    5.0177    0.0000 C   0  0  0  0  0  0  0  0  0  0  0  0
    6.0694    4.5228    0.0000 C   0  0  0  0  0  0  0  0  0  0  0  0
  1  2  1  0  0  0  0
  2  3  2  0  0  0  0
  2  4  1  0  0  0  0
  4 31  2  0  0  0  0
  4  5  1  0  0  0  0
  5  6  2  0  0  0  0
  6  7  1  0  0  0  0
  7  8  2  0  0  0  0
  7  9  1  0  0  0  0
  6 10  1  0  0  0  0
 10 11  1  0  0  0  0
 11 12  1  0  0  0  0
 12 13  1  0  0  0  0
 13 14  1  6  0  0  0
 13 15  1  0  0  0  0
 13 16  1  0  0  0  0
 16 17  1  0  0  0  0
 17 22  1  0  0  0  0
 17 18  1  0  0  0  0
 18 19  1  0  0  0  0
 19 20  1  0  0  0  0
 20 21  1  0  0  0  0
 21 22  1  0  0  0  0
 20 23  1  0  0  0  0
 23 28  2  0  0  0  0
 23 24  1  0  0  0  0
 24 25  2  0  0  0  0
 25 26  1  0  0  0  0
 26 27  2  0  0  0  0
 27 28  1  0  0  0  0
 28 29  1  0  0  0  0
 10 30  2  0  0  0  0
 30 31  1  0  0  0  0
 31 32  1  0  0  0  0
M  END
> <ID>
1591192

$$$$
1591193
  -OEChem-05171416412D

 28 30  0     1  0  0  0  0  0999 V2000
    2.5942    7.5165    0.0000 C   0  0  0  0  0  0  0  0  0  0  0  0
    2.5957    6.5165    0.0000 C   0  0  0  0  0  0  0  0  0  0  0  0
    1.7305    6.0152    0.0000 O   0  0  0  0  0  0  0  0  0  0  0  0
    3.4625    6.0178    0.0000 C   0  0  0  0  0  0  0  0  0  0  0  0
    4.3285    6.5179    0.0000 C   0  0  0  0  0  0  0  0  0  0  0  0
    5.1975    6.0229    0.0000 C   0  0  0  0  0  0  0  0  0  0  0  0
    5.2005    5.0177    0.0000 C   0  0  0  0  0  0  0  0  0  0  0  0
    4.3345    4.5075    0.0000 C   0  0  0  0  0  0  0  0  0  0  0  0
    3.4655    5.0126    0.0000 C   0  0  0  0  0  0  0  0  0  0  0  0
    2.5995    4.5126    0.0000 O   0  0  0  0  0  0  0  0  0  0  0  0
    2.5995    3.5126    0.0000 C   0  0  0  0  0  0  0  0  0  0  0  0
    1.7334    3.0126    0.0000 C   0  0  2  0  0  0  0  0  0  0  0  0
    2.2334    2.1466    0.0000 H   0  0  0  0  0  0  0  0  0  0  0  0
    1.2334    3.8786    0.0000 O   0  0  0  0  0  0  0  0  0  0  0  0
    0.8674    2.5126    0.0000 C   0  0  0  0  0  0  0  0  0  0  0  0
    0.8674    1.5126    0.0000 N   0  0  0  0  0  0  0  0  0  0  0  0
    0.0000    1.0051    0.0000 C   0  0  0  0  0  0  0  0  0  0  0  0
    0.0000    0.0000    0.0000 C   0  0  0  0  0  0  0  0  0  0  0  0
    0.8674   -0.4976    0.0000 N   0  0  0  0  0  0  0  0  0  0  0  0
    1.7348    0.0000    0.0000 C   0  0  0  0  0  0  0  0  0  0  0  0
    1.7348    1.0051    0.0000 C   0  0  0  0  0  0  0  0  0  0  0  0
    0.8674   -1.4976    0.0000 C   0  0  0  0  0  0  0  0  0  0  0  0
    1.7327   -1.9989    0.0000 C   0  0  0  0  0  0  0  0  0  0  0  0
    1.7371   -2.9989    0.0000 C   0  0  0  0  0  0  0  0  0  0  0  0
    0.8673   -3.5028    0.0000 C   0  0  0  0  0  0  0  0  0  0  0  0
   -0.0069   -3.0066    0.0000 C   0  0  0  0  0  0  0  0  0  0  0  0
   -0.0024   -2.0015    0.0000 C   0  0  0  0  0  0  0  0  0  0  0  0
   -0.8677   -1.5002    0.0000 C   0  0  0  0  0  0  0  0  0  0  0  0
  1  2  1  0  0  0  0
  2  3  2  0  0  0  0
  2  4  1  0  0  0  0
  4  9  2  0  0  0  0
  4  5  1  0  0  0  0
  5  6  2  0  0  0  0
  6  7  1  0  0  0  0
  7  8  2  0  0  0  0
  8  9  1  0  0  0  0
  9 10  1  0  0  0  0
 10 11  1  0  0  0  0
 11 12  1  0  0  0  0
 12 13  1  6  0  0  0
 12 14  1  0  0  0  0
 12 15  1  0  0  0  0
 15 16  1  0  0  0  0
 16 21  1  0  0  0  0
 16 17  1  0  0  0  0
 17 18  1  0  0  0  0
 18 19  1  0  0  0  0
 19 20  1  0  0  0  0
 20 21  1  0  0  0  0
 19 22  1  0  0  0  0
 22 27  2  0  0  0  0
 22 23  1  0  0  0  0
 23 24  2  0  0  0  0
 24 25  1  0  0  0  0
 25 26  2  0  0  0  0
 26 27  1  0  0  0  0
 27 28  1  0  0  0  0
M  END
> <ID>
1591193

$$$$
1591194
  -OEChem-05171416412D

 29 31  0     1  0  0  0  0  0999 V2000
    3.4662    3.0087    0.0000 C   0  0  0  0  0  0  0  0  0  0  0  0
    4.3330    3.5074    0.0000 C   0  0  0  0  0  0  0  0  0  0  0  0
    5.1983    3.0061    0.0000 O   0  0  0  0  0  0  0  0  0  0  0  0
    4.3345    4.5074    0.0000 C   0  0  0  0  0  0  0  0  0  0  0  0
    5.2006    5.0074    0.0000 C   0  0  0  0  0  0  0  0  0  0  0  0
    5.2064    6.0074    0.0000 C   0  0  0  0  0  0  0  0  0  0  0  0
    4.3374    6.5126    0.0000 C   0  0  0  0  0  0  0  0  0  0  0  0
    4.3433    7.5126    0.0000 C   0  0  0  0  0  0  0  0  0  0  0  0
    3.4625    6.0177    0.0000 C   0  0  0  0  0  0  0  0  0  0  0  0
    3.4655    5.0126    0.0000 C   0  0  0  0  0  0  0  0  0  0  0  0
    2.5995    4.5126    0.0000 O   0  0  0  0  0  0  0  0  0  0  0  0
    2.5995    3.5126    0.0000 C   0  0  0  0  0  0  0  0  0  0  0  0
    1.7334    3.0126    0.0000 C   0  0  2  0  0  0  0  0  0  0  0  0
    2.2334    2.1466    0.0000 H   0  0  0  0  0  0  0  0  0  0  0  0
    1.2334    3.8786    0.0000 O   0  0  0  0  0  0  0  0  0  0  0  0
    0.8674    2.5126    0.0000 C   0  0  0  0  0  0  0  0  0  0  0  0
    0.8674    1.5126    0.0000 N   0  0  0  0  0  0  0  0  0  0  0  0
    0.0000    1.0051    0.0000 C   0  0  0  0  0  0  0  0  0  0  0  0
    0.0000    0.0000    0.0000 C   0  0  0  0  0  0  0  0  0  0  0  0
    0.8674   -0.4976    0.0000 N   0  0  0  0  0  0  0  0  0  0  0  0
    1.7348    0.0000    0.0000 C   0  0  0  0  0  0  0  0  0  0  0  0
    1.7348    1.0051    0.0000 C   0  0  0  0  0  0  0  0  0  0  0  0
    0.8674   -1.4976    0.0000 C   0  0  0  0  0  0  0  0  0  0  0  0
    1.7327   -1.9989    0.0000 C   0  0  0  0  0  0  0  0  0  0  0  0
    1.7371   -2.9989    0.0000 C   0  0  0  0  0  0  0  0  0  0  0  0
    0.8673   -3.5028    0.0000 C   0  0  0  0  0  0  0  0  0  0  0  0
   -0.0069   -3.0066    0.0000 C   0  0  0  0  0  0  0  0  0  0  0  0
   -0.0024   -2.0015    0.0000 C   0  0  0  0  0  0  0  0  0  0  0  0
   -0.8677   -1.5002    0.0000 C   0  0  0  0  0  0  0  0  0  0  0  0
  1  2  1  0  0  0  0
  2  3  2  0  0  0  0
  2  4  1  0  0  0  0
  4 10  2  0  0  0  0
  4  5  1  0  0  0  0
  5  6  2  0  0  0  0
  6  7  1  0  0  0  0
  7  8  1  0  0  0  0
  7  9  2  0  0  0  0
  9 10  1  0  0  0  0
 10 11  1  0  0  0  0
 11 12  1  0  0  0  0
 12 13  1  0  0  0  0
 13 14  1  6  0  0  0
 13 15  1  0  0  0  0
 13 16  1  0  0  0  0
 16 17  1  0  0  0  0
 17 22  1  0  0  0  0
 17 18  1  0  0  0  0
 18 19  1  0  0  0  0
 19 20  1  0  0  0  0
 20 21  1  0  0  0  0
 21 22  1  0  0  0  0
 20 23  1  0  0  0  0
 23 28  2  0  0  0  0
 23 24  1  0  0  0  0
 24 25  2  0  0  0  0
 25 26  1  0  0  0  0
 26 27  2  0  0  0  0
 27 28  1  0  0  0  0
 28 29  1  0  0  0  0
M  END
> <ID>
1591194

$$$$
1591195
  -OEChem-05171416412D

 30 32  0     1  0  0  0  0  0999 V2000
    3.4662    3.0087    0.0000 C   0  0  0  0  0  0  0  0  0  0  0  0
    4.3330    3.5074    0.0000 C   0  0  0  0  0  0  0  0  0  0  0  0
    5.1983    3.0061    0.0000 O   0  0  0  0  0  0  0  0  0  0  0  0
    4.3345    4.5074    0.0000 C   0  0  0  0  0  0  0  0  0  0  0  0
    5.2006    5.0074    0.0000 C   0  0  0  0  0  0  0  0  0  0  0  0
    5.2064    6.0074    0.0000 C   0  0  0  0  0  0  0  0  0  0  0  0
    6.0747    6.5036    0.0000 Cl  0  0  0  0  0  0  0  0  0  0  0  0
    4.3374    6.5126    0.0000 C   0  0  0  0  0  0  0  0  0  0  0  0
    4.3433    7.5126    0.0000 Cl  0  0  0  0  0  0  0  0  0  0  0  0
    3.4625    6.0177    0.0000 C   0  0  0  0  0  0  0  0  0  0  0  0
    3.4655    5.0126    0.0000 C   0  0  0  0  0  0  0  0  0  0  0  0
    2.5995    4.5126    0.0000 O   0  0  0  0  0  0  0  0  0  0  0  0
    2.5995    3.5126    0.0000 C   0  0  0  0  0  0  0  0  0  0  0  0
    1.7334    3.0126    0.0000 C   0  0  2  0  0  0  0  0  0  0  0  0
    2.2334    2.1466    0.0000 H   0  0  0  0  0  0  0  0  0  0  0  0
    1.2334    3.8786    0.0000 O   0  0  0  0  0  0  0  0  0  0  0  0
    0.8674    2.5126    0.0000 C   0  0  0  0  0  0  0  0  0  0  0  0
    0.8674    1.5126    0.0000 N   0  0  0  0  0  0  0  0  0  0  0  0
    0.0000    1.0051    0.0000 C   0  0  0  0  0  0  0  0  0  0  0  0
    0.0000    0.0000    0.0000 C   0  0  0  0  0  0  0  0  0  0  0  0
    0.8674   -0.4976    0.0000 N   0  0  0  0  0  0  0  0  0  0  0  0
    1.7348    0.0000    0.0000 C   0  0  0  0  0  0  0  0  0  0  0  0
    1.7348    1.0051    0.0000 C   0  0  0  0  0  0  0  0  0  0  0  0
    0.8674   -1.4976    0.0000 C   0  0  0  0  0  0  0  0  0  0  0  0
    1.7327   -1.9989    0.0000 C   0  0  0  0  0  0  0  0  0  0  0  0
    1.7371   -2.9989    0.0000 C   0  0  0  0  0  0  0  0  0  0  0  0
    0.8673   -3.5028    0.0000 C   0  0  0  0  0  0  0  0  0  0  0  0
   -0.0069   -3.0066    0.0000 C   0  0  0  0  0  0  0  0  0  0  0  0
   -0.0024   -2.0015    0.0000 C   0  0  0  0  0  0  0  0  0  0  0  0
   -0.8677   -1.5002    0.0000 C   0  0  0  0  0  0  0  0  0  0  0  0
  1  2  1  0  0  0  0
  2  3  2  0  0  0  0
  2  4  1  0  0  0  0
  4 11  2  0  0  0  0
  4  5  1  0  0  0  0
  5  6  2  0  0  0  0
  6  7  1  0  0  0  0
  6  8  1  0  0  0  0
  8  9  1  0  0  0  0
  8 10  2  0  0  0  0
 10 11  1  0  0  0  0
 11 12  1  0  0  0  0
 12 13  1  0  0  0  0
 13 14  1  0  0  0  0
 14 15  1  6  0  0  0
 14 16  1  0  0  0  0
 14 17  1  0  0  0  0
 17 18  1  0  0  0  0
 18 23  1  0  0  0  0
 18 19  1  0  0  0  0
 19 20  1  0  0  0  0
 20 21  1  0  0  0  0
 21 22  1  0  0  0  0
 22 23  1  0  0  0  0
 21 24  1  0  0  0  0
 24 29  2  0  0  0  0
 24 25  1  0  0  0  0
 25 26  2  0  0  0  0
 26 27  1  0  0  0  0
 27 28  2  0  0  0  0
 28 29  1  0  0  0  0
 29 30  1  0  0  0  0
M  END
> <ID>
1591195

$$$$
1591196
  -OEChem-05171416412D

 40 43  0     1  0  0  0  0  0999 V2000
    6.0753    3.5229    0.0000 C   0  0  0  0  0  0  0  0  0  0  0  0
    6.0694    4.5228    0.0000 O   0  0  0  0  0  0  0  0  0  0  0  0
    5.2005    5.0177    0.0000 C   0  0  0  0  0  0  0  0  0  0  0  0
    5.1975    6.0229    0.0000 C   0  0  0  0  0  0  0  0  0  0  0  0
    4.3285    6.5179    0.0000 C   0  0  0  0  0  0  0  0  0  0  0  0
    3.4625    6.0178    0.0000 C   0  0  0  0  0  0  0  0  0  0  0  0
    2.5957    6.5165    0.0000 C   0  0  0  0  0  0  0  0  0  0  0  0
    2.5942    7.5165    0.0000 O   0  0  0  0  0  0  0  0  0  0  0  0
    1.7305    6.0152    0.0000 C   0  0  0  0  0  0  0  0  0  0  0  0
    0.8637    6.5139    0.0000 C   0  0  0  0  0  0  0  0  0  0  0  0
   -0.0016    6.0126    0.0000 C   0  0  0  0  0  0  0  0  0  0  0  0
    0.0029    5.0074    0.0000 C   0  0  0  0  0  0  0  0  0  0  0  0
   -0.8624    4.5061    0.0000 C   0  0  0  0  0  0  0  0  0  0  0  0
   -1.7321    4.9997    0.0000 C   0  0  0  0  0  0  0  0  0  0  0  0
   -1.7366    6.0049    0.0000 C   0  0  0  0  0  0  0  0  0  0  0  0
   -0.8713    6.5164    0.0000 C   0  0  0  0  0  0  0  0  0  0  0  0
   -2.5952    4.4946    0.0000 N   0  0  0  0  0  0  0  0  0  0  0  0
   -2.5893    3.4946    0.0000 C   0  0  0  0  0  0  0  0  0  0  0  0
   -3.4641    4.9895    0.0000 C   0  0  0  0  0  0  0  0  0  0  0  0
    3.4655    5.0126    0.0000 C   0  0  0  0  0  0  0  0  0  0  0  0
    2.5995    4.5126    0.0000 O   0  0  0  0  0  0  0  0  0  0  0  0
    2.5995    3.5126    0.0000 C   0  0  0  0  0  0  0  0  0  0  0  0
    1.7334    3.0126    0.0000 C   0  0  2  0  0  0  0  0  0  0  0  0
    2.2334    2.1466    0.0000 H   0  0  0  0  0  0  0  0  0  0  0  0
    1.2334    3.8786    0.0000 O   0  0  0  0  0  0  0  0  0  0  0  0
    0.8674    2.5126    0.0000 C   0  0  0  0  0  0  0  0  0  0  0  0
    0.8674    1.5126    0.0000 N   0  0  0  0  0  0  0  0  0  0  0  0
    0.0000    1.0051    0.0000 C   0  0  0  0  0  0  0  0  0  0  0  0
    0.0000    0.0000    0.0000 C   0  0  0  0  0  0  0  0  0  0  0  0
    0.8674   -0.4976    0.0000 N   0  0  0  0  0  0  0  0  0  0  0  0
    1.7348    0.0000    0.0000 C   0  0  0  0  0  0  0  0  0  0  0  0
    1.7348    1.0051    0.0000 C   0  0  0  0  0  0  0  0  0  0  0  0
    0.8674   -1.4976    0.0000 C   0  0  0  0  0  0  0  0  0  0  0  0
    1.7327   -1.9989    0.0000 C   0  0  0  0  0  0  0  0  0  0  0  0
    1.7371   -2.9989    0.0000 C   0  0  0  0  0  0  0  0  0  0  0  0
    0.8673   -3.5028    0.0000 C   0  0  0  0  0  0  0  0  0  0  0  0
   -0.0069   -3.0066    0.0000 C   0  0  0  0  0  0  0  0  0  0  0  0
   -0.0024   -2.0015    0.0000 C   0  0  0  0  0  0  0  0  0  0  0  0
   -0.8677   -1.5002    0.0000 C   0  0  0  0  0  0  0  0  0  0  0  0
    4.3345    4.5075    0.0000 C   0  0  0  0  0  0  0  0  0  0  0  0
  1  2  1  0  0  0  0
  2  3  1  0  0  0  0
  3 40  2  0  0  0  0
  3  4  1  0  0  0  0
  4  5  2  0  0  0  0
  5  6  1  0  0  0  0
  6  7  1  0  0  0  0
  7  8  2  0  0  0  0
  7  9  1  0  0  0  0
  9 10  1  0  0  0  0
 10 11  1  0  0  0  0
 11 16  2  0  0  0  0
 11 12  1  0  0  0  0
 12 13  2  0  0  0  0
 13 14  1  0  0  0  0
 14 15  2  0  0  0  0
 15 16  1  0  0  0  0
 14 17  1  0  0  0  0
 17 18  1  0  0  0  0
 17 19  1  0  0  0  0
  6 20  2  0  0  0  0
 20 21  1  0  0  0  0
 21 22  1  0  0  0  0
 22 23  1  0  0  0  0
 23 24  1  6  0  0  0
 23 25  1  0  0  0  0
 23 26  1  0  0  0  0
 26 27  1  0  0  0  0
 27 32  1  0  0  0  0
 27 28  1  0  0  0  0
 28 29  1  0  0  0  0
 29 30  1  0  0  0  0
 30 31  1  0  0  0  0
 31 32  1  0  0  0  0
 30 33  1  0  0  0  0
 33 38  2  0  0  0  0
 33 34  1  0  0  0  0
 34 35  2  0  0  0  0
 35 36  1  0  0  0  0
 36 37  2  0  0  0  0
 37 38  1  0  0  0  0
 38 39  1  0  0  0  0
 20 40  1  0  0  0  0
M  END
> <ID>
1591196

$$$$
1591197
  -OEChem-05171416412D

 31 33  0     1  0  0  0  0  0999 V2000
    2.5995    1.4976    0.0000 C   0  0  0  0  0  0  0  0  0  0  0  0
    1.7350    2.0001    0.0000 C   0  0  0  0  0  0  0  0  0  0  0  0
    1.7379    3.0001    0.0000 O   0  0  0  0  0  0  0  0  0  0  0  0
    0.8675    1.5027    0.0000 C   0  0  0  0  0  0  0  0  0  0  0  0
    0.8675    0.4975    0.0000 C   0  0  0  0  0  0  0  0  0  0  0  0
    0.0000    0.0000    0.0000 C   0  0  0  0  0  0  0  0  0  0  0  0
   -0.8675    0.4975    0.0000 C   0  0  0  0  0  0  0  0  0  0  0  0
   -1.7328   -0.0038    0.0000 O   0  0  0  0  0  0  0  0  0  0  0  0
   -1.7313   -1.0038    0.0000 C   0  0  0  0  0  0  0  0  0  0  0  0
   -2.5966   -1.5050    0.0000 C   0  0  2  0  0  0  0  0  0  0  0  0
   -2.0954   -2.3703    0.0000 H   0  0  0  0  0  0  0  0  0  0  0  0
   -3.0979   -0.6397    0.0000 O   0  0  0  0  0  0  0  0  0  0  0  0
   -3.4619   -2.0063    0.0000 C   0  0  0  0  0  0  0  0  0  0  0  0
   -3.4605   -3.0063    0.0000 N   0  0  0  0  0  0  0  0  0  0  0  0
   -4.3258   -3.5075    0.0000 C   0  0  0  0  0  0  0  0  0  0  0  0
   -4.3243   -4.5075    0.0000 C   0  0  0  0  0  0  0  0  0  0  0  0
   -5.1896   -5.0088    0.0000 C   0  0  0  0  0  0  0  0  0  0  0  0
   -5.1882   -6.0088    0.0000 C   0  0  0  0  0  0  0  0  0  0  0  0
   -4.3155   -6.5075    0.0000 C   0  0  0  0  0  0  0  0  0  0  0  0
   -4.3140   -7.5076    0.0000 C   0  0  0  0  0  0  0  0  0  0  0  0
   -5.1763   -8.0139    0.0000 C   0  0  0  0  0  0  0  0  0  0  0  0
   -6.0491   -7.5151    0.0000 C   0  0  0  0  0  0  0  0  0  0  0  0
   -6.0594   -6.5100    0.0000 C   0  0  0  0  0  0  0  0  0  0  0  0
   -6.0564   -4.5100    0.0000 C   0  0  0  0  0  0  0  0  0  0  0  0
   -6.9247   -5.0165    0.0000 C   0  0  0  0  0  0  0  0  0  0  0  0
   -7.7915   -4.5177    0.0000 C   0  0  0  0  0  0  0  0  0  0  0  0
   -7.7988   -3.5177    0.0000 C   0  0  0  0  0  0  0  0  0  0  0  0
   -6.9305   -3.0113    0.0000 C   0  0  0  0  0  0  0  0  0  0  0  0
   -6.0549   -3.5049    0.0000 C   0  0  0  0  0  0  0  0  0  0  0  0
   -0.8675    1.5027    0.0000 C   0  0  0  0  0  0  0  0  0  0  0  0
    0.0000    2.0104    0.0000 C   0  0  0  0  0  0  0  0  0  0  0  0
  1  2  1  0  0  0  0
  2  3  2  0  0  0  0
  2  4  1  0  0  0  0
  4 31  2  0  0  0  0
  4  5  1  0  0  0  0
  5  6  2  0  0  0  0
  6  7  1  0  0  0  0
  7  8  1  0  0  0  0
  8  9  1  0  0  0  0
  9 10  1  0  0  0  0
 10 11  1  6  0  0  0
 10 12  1  0  0  0  0
 10 13  1  0  0  0  0
 13 14  1  0  0  0  0
 14 15  1  0  0  0  0
 15 16  1  0  0  0  0
 16 17  1  0  0  0  0
 17 18  1  0  0  0  0
 18 23  2  0  0  0  0
 18 19  1  0  0  0  0
 19 20  2  0  0  0  0
 20 21  1  0  0  0  0
 21 22  2  0  0  0  0
 22 23  1  0  0  0  0
 17 24  1  0  0  0  0
 24 29  2  0  0  0  0
 24 25  1  0  0  0  0
 25 26  2  0  0  0  0
 26 27  1  0  0  0  0
 27 28  2  0  0  0  0
 28 29  1  0  0  0  0
  7 30  2  0  0  0  0
 30 31  1  0  0  0  0
M  END
> <ID>
1591197

$$$$
1591198
  -OEChem-05171416412D

 35 38  0     1  0  0  0  0  0999 V2000
   -0.8699    2.5113    0.0000 C   0  0  0  0  0  0  0  0  0  0  0  0
   -0.0046    3.0126    0.0000 C   0  0  0  0  0  0  0  0  0  0  0  0
   -0.0047    4.0127    0.0000 C   0  0  0  0  0  0  0  0  0  0  0  0
    0.8585    4.5177    0.0000 C   0  0  0  0  0  0  0  0  0  0  0  0
    1.7305    4.0177    0.0000 C   0  0  0  0  0  0  0  0  0  0  0  0
    1.7394    3.0126    0.0000 C   0  0  0  0  0  0  0  0  0  0  0  0
    0.8674    2.5126    0.0000 C   0  0  0  0  0  0  0  0  0  0  0  0
    0.8674    1.5126    0.0000 N   0  0  0  0  0  0  0  0  0  0  0  0
    0.0000    1.0051    0.0000 C   0  0  0  0  0  0  0  0  0  0  0  0
    0.0000    0.0000    0.0000 C   0  0  0  0  0  0  0  0  0  0  0  0
    0.8674   -0.4976    0.0000 N   0  0  0  0  0  0  0  0  0  0  0  0
    0.8674   -1.4976    0.0000 C   0  0  0  0  0  0  0  0  0  0  0  0
    1.7334   -1.9976    0.0000 C   0  0  1  0  0  0  0  0  0  0  0  0
    2.2334   -1.1316    0.0000 H   0  0  0  0  0  0  0  0  0  0  0  0
    1.2334   -2.8636    0.0000 O   0  0  0  0  0  0  0  0  0  0  0  0
    2.5995   -2.4976    0.0000 C   0  0  0  0  0  0  0  0  0  0  0  0
    3.4655   -1.9976    0.0000 O   0  0  0  0  0  0  0  0  0  0  0  0
    4.3315   -2.4976    0.0000 C   0  0  0  0  0  0  0  0  0  0  0  0
    4.3285   -3.5028    0.0000 C   0  0  0  0  0  0  0  0  0  0  0  0
    5.1946   -4.0029    0.0000 C   0  0  0  0  0  0  0  0  0  0  0  0
    6.0635   -3.5079    0.0000 C   0  0  0  0  0  0  0  0  0  0  0  0
    6.0665   -2.5027    0.0000 C   0  0  0  0  0  0  0  0  0  0  0  0
    5.2005   -1.9925    0.0000 C   0  0  0  0  0  0  0  0  0  0  0  0
    6.9355   -2.0078    0.0000 C   0  0  0  0  0  0  0  0  0  0  0  0
    7.7985   -2.5129    0.0000 O   0  0  0  0  0  0  0  0  0  0  0  0
    6.9414   -1.0079    0.0000 C   0  0  0  0  0  0  0  0  0  0  0  0
    7.8103   -0.5130    0.0000 C   0  0  0  0  0  0  0  0  0  0  0  0
    7.8162    0.4870    0.0000 C   0  0  0  0  0  0  0  0  0  0  0  0
    6.9472    0.9922    0.0000 C   0  0  0  0  0  0  0  0  0  0  0  0
    6.9530    1.9922    0.0000 C   0  0  0  0  0  0  0  0  0  0  0  0
    7.8191    2.4922    0.0000 C   0  0  0  0  0  0  0  0  0  0  0  0
    8.6881    1.9870    0.0000 C   0  0  0  0  0  0  0  0  0  0  0  0
    8.6911    0.9819    0.0000 C   0  0  0  0  0  0  0  0  0  0  0  0
    1.7348    0.0000    0.0000 C   0  0  0  0  0  0  0  0  0  0  0  0
    1.7348    1.0051    0.0000 C   0  0  0  0  0  0  0  0  0  0  0  0
  1  2  1  0  0  0  0
  2  7  2  0  0  0  0
  2  3  1  0  0  0  0
  3  4  2  0  0  0  0
  4  5  1  0  0  0  0
  5  6  2  0  0  0  0
  6  7  1  0  0  0  0
  7  8  1  0  0  0  0
  8 35  1  0  0  0  0
  8  9  1  0  0  0  0
  9 10  1  0  0  0  0
 10 11  1  0  0  0  0
 11 12  1  0  0  0  0
 12 13  1  0  0  0  0
 13 14  1  1  0  0  0
 13 15  1  0  0  0  0
 13 16  1  0  0  0  0
 16 17  1  0  0  0  0
 17 18  1  0  0  0  0
 18 23  2  0  0  0  0
 18 19  1  0  0  0  0
 19 20  2  0  0  0  0
 20 21  1  0  0  0  0
 21 22  2  0  0  0  0
 22 23  1  0  0  0  0
 22 24  1  0  0  0  0
 24 25  2  0  0  0  0
 24 26  1  0  0  0  0
 26 27  1  0  0  0  0
 27 28  1  0  0  0  0
 28 33  2  0  0  0  0
 28 29  1  0  0  0  0
 29 30  2  0  0  0  0
 30 31  1  0  0  0  0
 31 32  2  0  0  0  0
 32 33  1  0  0  0  0
 11 34  1  0  0  0  0
 34 35  1  0  0  0  0
M  END
> <ID>
1591198

$$$$
1591199
  -OEChem-05171416412D

 38 41  0     1  0  0  0  0  0999 V2000
    5.5611    0.6228    0.0000 O   0  0  0  0  0  0  0  0  0  0  0  0
    6.0636    1.4874    0.0000 C   0  0  2  0  0  0  0  0  0  0  0  0
    6.5662    2.3519    0.0000 H   0  0  0  0  0  0  0  0  0  0  0  0
    5.1991    1.9899    0.0000 C   0  0  0  0  0  0  0  0  0  0  0  0
    4.3316    1.4925    0.0000 N   0  0  0  0  0  0  0  0  0  0  0  0
    3.4670    1.9950    0.0000 C   0  0  0  0  0  0  0  0  0  0  0  0
    2.5995    1.4976    0.0000 C   0  0  0  0  0  0  0  0  0  0  0  0
    1.7350    2.0001    0.0000 C   0  0  0  0  0  0  0  0  0  0  0  0
    0.8675    1.5027    0.0000 C   0  0  0  0  0  0  0  0  0  0  0  0
    0.8675    0.4975    0.0000 C   0  0  0  0  0  0  0  0  0  0  0  0
    0.0000    0.0000    0.0000 C   0  0  0  0  0  0  0  0  0  0  0  0
   -0.8675    0.4975    0.0000 C   0  0  0  0  0  0  0  0  0  0  0  0
   -0.8675    1.5027    0.0000 C   0  0  0  0  0  0  0  0  0  0  0  0
    0.0000    2.0104    0.0000 C   0  0  0  0  0  0  0  0  0  0  0  0
    1.7379    3.0001    0.0000 C   0  0  0  0  0  0  0  0  0  0  0  0
    0.8674    3.5027    0.0000 C   0  0  0  0  0  0  0  0  0  0  0  0
    0.8703    4.5028    0.0000 C   0  0  0  0  0  0  0  0  0  0  0  0
    1.7349    5.0053    0.0000 C   0  0  0  0  0  0  0  0  0  0  0  0
    2.6054    4.5027    0.0000 C   0  0  0  0  0  0  0  0  0  0  0  0
    2.6114    3.4976    0.0000 C   0  0  0  0  0  0  0  0  0  0  0  0
    6.9282    0.9848    0.0000 C   0  0  0  0  0  0  0  0  0  0  0  0
    7.7957    1.4823    0.0000 O   0  0  0  0  0  0  0  0  0  0  0  0
    8.6602    0.9797    0.0000 C   0  0  0  0  0  0  0  0  0  0  0  0
    8.6543   -0.0255    0.0000 C   0  0  0  0  0  0  0  0  0  0  0  0
    9.5188   -0.5281    0.0000 C   0  0  0  0  0  0  0  0  0  0  0  0
   10.3893   -0.0357    0.0000 C   0  0  0  0  0  0  0  0  0  0  0  0
   10.3952    0.9695    0.0000 C   0  0  0  0  0  0  0  0  0  0  0  0
    9.5307    1.4823    0.0000 C   0  0  0  0  0  0  0  0  0  0  0  0
   11.2656    1.4618    0.0000 C   0  0  0  0  0  0  0  0  0  0  0  0
   12.1272    0.9541    0.0000 O   0  0  0  0  0  0  0  0  0  0  0  0
   11.2745    2.4617    0.0000 C   0  0  0  0  0  0  0  0  0  0  0  0
   12.1449    2.9541    0.0000 C   0  0  0  0  0  0  0  0  0  0  0  0
   12.1537    3.9540    0.0000 C   0  0  0  0  0  0  0  0  0  0  0  0
   11.2862    4.4617    0.0000 C   0  0  0  0  0  0  0  0  0  0  0  0
   11.2950    5.4617    0.0000 C   0  0  0  0  0  0  0  0  0  0  0  0
   12.1625    5.9592    0.0000 C   0  0  0  0  0  0  0  0  0  0  0  0
   13.0301    5.4514    0.0000 C   0  0  0  0  0  0  0  0  0  0  0  0
   13.0301    4.4463    0.0000 C   0  0  0  0  0  0  0  0  0  0  0  0
  1  2  1  0  0  0  0
  2  3  1  1  0  0  0
  2  4  1  0  0  0  0
  4  5  1  0  0  0  0
  5  6  1  0  0  0  0
  6  7  1  0  0  0  0
  7  8  1  0  0  0  0
  8  9  1  0  0  0  0
  9 14  2  0  0  0  0
  9 10  1  0  0  0  0
 10 11  2  0  0  0  0
 11 12  1  0  0  0  0
 12 13  2  0  0  0  0
 13 14  1  0  0  0  0
  8 15  1  0  0  0  0
 15 20  2  0  0  0  0
 15 16  1  0  0  0  0
 16 17  2  0  0  0  0
 17 18  1  0  0  0  0
 18 19  2  0  0  0  0
 19 20  1  0  0  0  0
  2 21  1  0  0  0  0
 21 22  1  0  0  0  0
 22 23  1  0  0  0  0
 23 28  2  0  0  0  0
 23 24  1  0  0  0  0
 24 25  2  0  0  0  0
 25 26  1  0  0  0  0
 26 27  2  0  0  0  0
 27 28  1  0  0  0  0
 27 29  1  0  0  0  0
 29 30  2  0  0  0  0
 29 31  1  0  0  0  0
 31 32  1  0  0  0  0
 32 33  1  0  0  0  0
 33 38  2  0  0  0  0
 33 34  1  0  0  0  0
 34 35  2  0  0  0  0
 35 36  1  0  0  0  0
 36 37  2  0  0  0  0
 37 38  1  0  0  0  0
M  END
> <ID>
1591199

$$$$
1591200
  -OEChem-05171416412D

 36 39  0     1  0  0  0  0  0999 V2000
    2.5935    4.5228    0.0000 C   0  0  0  0  0  0  0  0  0  0  0  0
    1.7305    4.0177    0.0000 C   0  0  0  0  0  0  0  0  0  0  0  0
    0.8585    4.5177    0.0000 C   0  0  0  0  0  0  0  0  0  0  0  0
   -0.0047    4.0127    0.0000 C   0  0  0  0  0  0  0  0  0  0  0  0
   -0.0046    3.0126    0.0000 C   0  0  0  0  0  0  0  0  0  0  0  0
    0.8674    2.5126    0.0000 C   0  0  0  0  0  0  0  0  0  0  0  0
    0.8674    1.5126    0.0000 N   0  0  0  0  0  0  0  0  0  0  0  0
    0.0000    1.0051    0.0000 C   0  0  0  0  0  0  0  0  0  0  0  0
    0.0000    0.0000    0.0000 C   0  0  0  0  0  0  0  0  0  0  0  0
    0.8674   -0.4976    0.0000 N   0  0  0  0  0  0  0  0  0  0  0  0
    0.8674   -1.4976    0.0000 C   0  0  0  0  0  0  0  0  0  0  0  0
    1.7334   -1.9976    0.0000 C   0  0  1  0  0  0  0  0  0  0  0  0
    2.2334   -1.1316    0.0000 H   0  0  0  0  0  0  0  0  0  0  0  0
    1.2334   -2.8636    0.0000 O   0  0  0  0  0  0  0  0  0  0  0  0
    2.5995   -2.4976    0.0000 C   0  0  0  0  0  0  0  0  0  0  0  0
    3.4655   -1.9976    0.0000 O   0  0  0  0  0  0  0  0  0  0  0  0
    4.3315   -2.4976    0.0000 C   0  0  0  0  0  0  0  0  0  0  0  0
    4.3285   -3.5028    0.0000 C   0  0  0  0  0  0  0  0  0  0  0  0
    5.1946   -4.0029    0.0000 C   0  0  0  0  0  0  0  0  0  0  0  0
    6.0635   -3.5079    0.0000 C   0  0  0  0  0  0  0  0  0  0  0  0
    6.0665   -2.5027    0.0000 C   0  0  0  0  0  0  0  0  0  0  0  0
    5.2005   -1.9925    0.0000 C   0  0  0  0  0  0  0  0  0  0  0  0
    6.9355   -2.0078    0.0000 C   0  0  0  0  0  0  0  0  0  0  0  0
    7.7985   -2.5129    0.0000 O   0  0  0  0  0  0  0  0  0  0  0  0
    6.9414   -1.0079    0.0000 C   0  0  0  0  0  0  0  0  0  0  0  0
    7.8103   -0.5130    0.0000 C   0  0  0  0  0  0  0  0  0  0  0  0
    7.8162    0.4870    0.0000 C   0  0  0  0  0  0  0  0  0  0  0  0
    6.9472    0.9922    0.0000 C   0  0  0  0  0  0  0  0  0  0  0  0
    6.9530    1.9922    0.0000 C   0  0  0  0  0  0  0  0  0  0  0  0
    7.8191    2.4922    0.0000 C   0  0  0  0  0  0  0  0  0  0  0  0
    8.6881    1.9870    0.0000 C   0  0  0  0  0  0  0  0  0  0  0  0
    8.6911    0.9819    0.0000 C   0  0  0  0  0  0  0  0  0  0  0  0
    1.7348    0.0000    0.0000 C   0  0  0  0  0  0  0  0  0  0  0  0
    1.7348    1.0051    0.0000 C   0  0  0  0  0  0  0  0  0  0  0  0
    1.7394    3.0126    0.0000 C   0  0  0  0  0  0  0  0  0  0  0  0
    2.6069    2.5152    0.0000 C   0  0  0  0  0  0  0  0  0  0  0  0
  1  2  1  0  0  0  0
  2 35  2  0  0  0  0
  2  3  1  0  0  0  0
  3  4  2  0  0  0  0
  4  5  1  0  0  0  0
  5  6  2  0  0  0  0
  6  7  1  0  0  0  0
  7 34  1  0  0  0  0
  7  8  1  0  0  0  0
  8  9  1  0  0  0  0
  9 10  1  0  0  0  0
 10 11  1  0  0  0  0
 11 12  1  0  0  0  0
 12 13  1  1  0  0  0
 12 14  1  0  0  0  0
 12 15  1  0  0  0  0
 15 16  1  0  0  0  0
 16 17  1  0  0  0  0
 17 22  2  0  0  0  0
 17 18  1  0  0  0  0
 18 19  2  0  0  0  0
 19 20  1  0  0  0  0
 20 21  2  0  0  0  0
 21 22  1  0  0  0  0
 21 23  1  0  0  0  0
 23 24  2  0  0  0  0
 23 25  1  0  0  0  0
 25 26  1  0  0  0  0
 26 27  1  0  0  0  0
 27 32  2  0  0  0  0
 27 28  1  0  0  0  0
 28 29  2  0  0  0  0
 29 30  1  0  0  0  0
 30 31  2  0  0  0  0
 31 32  1  0  0  0  0
 10 33  1  0  0  0  0
 33 34  1  0  0  0  0
  6 35  1  0  0  0  0
 35 36  1  0  0  0  0
M  END
> <ID>
1591200

$$$$
1591201
  -OEChem-05171416412D

 28 30  0     1  0  0  0  0  0999 V2000
    0.5015   -2.8635    0.0000 O   0  0  0  0  0  0  0  0  0  0  0  0
    0.0015   -1.9975    0.0000 C   0  0  1  0  0  0  0  0  0  0  0  0
   -0.4985   -1.1315    0.0000 H   0  0  0  0  0  0  0  0  0  0  0  0
   -0.8646   -2.4975    0.0000 C   0  0  0  0  0  0  0  0  0  0  0  0
   -0.8646   -3.4975    0.0000 O   0  0  0  0  0  0  0  0  0  0  0  0
   -1.7306   -3.9975    0.0000 C   0  0  0  0  0  0  0  0  0  0  0  0
   -2.5996   -3.4923    0.0000 C   0  0  0  0  0  0  0  0  0  0  0  0
   -3.4657   -3.9923    0.0000 C   0  0  0  0  0  0  0  0  0  0  0  0
   -3.4715   -4.9923    0.0000 C   0  0  0  0  0  0  0  0  0  0  0  0
   -2.6025   -5.4975    0.0000 C   0  0  0  0  0  0  0  0  0  0  0  0
   -1.7276   -5.0026    0.0000 C   0  0  0  0  0  0  0  0  0  0  0  0
   -2.6084   -6.4975    0.0000 C   0  0  0  0  0  0  0  0  0  0  0  0
   -3.4774   -6.9924    0.0000 O   0  0  0  0  0  0  0  0  0  0  0  0
   -1.7453   -7.0026    0.0000 C   0  0  0  0  0  0  0  0  0  0  0  0
   -1.7512   -8.0026    0.0000 C   0  0  0  0  0  0  0  0  0  0  0  0
   -0.8882   -8.5077    0.0000 C   0  0  0  0  0  0  0  0  0  0  0  0
   -0.0162   -8.0076    0.0000 C   0  0  0  0  0  0  0  0  0  0  0  0
    0.8469   -8.5127    0.0000 C   0  0  0  0  0  0  0  0  0  0  0  0
    0.8469   -9.5127    0.0000 C   0  0  0  0  0  0  0  0  0  0  0  0
   -0.0251  -10.0128    0.0000 C   0  0  0  0  0  0  0  0  0  0  0  0
   -0.8971   -9.5128    0.0000 C   0  0  0  0  0  0  0  0  0  0  0  0
    0.8675   -1.4975    0.0000 C   0  0  0  0  0  0  0  0  0  0  0  0
    0.8675   -0.4975    0.0000 N   0  0  0  0  0  0  0  0  0  0  0  0
    0.0000    0.0000    0.0000 C   0  0  0  0  0  0  0  0  0  0  0  0
   -0.0000    1.0052    0.0000 C   0  0  0  0  0  0  0  0  0  0  0  0
    0.8675    1.5129    0.0000 O   0  0  0  0  0  0  0  0  0  0  0  0
    1.7350    1.0052    0.0000 C   0  0  0  0  0  0  0  0  0  0  0  0
    1.7350    0.0000    0.0000 C   0  0  0  0  0  0  0  0  0  0  0  0
  1  2  1  0  0  0  0
  2  3  1  6  0  0  0
  2  4  1  0  0  0  0
  4  5  1  0  0  0  0
  5  6  1  0  0  0  0
  6 11  2  0  0  0  0
  6  7  1  0  0  0  0
  7  8  2  0  0  0  0
  8  9  1  0  0  0  0
  9 10  2  0  0  0  0
 10 11  1  0  0  0  0
 10 12  1  0  0  0  0
 12 13  2  0  0  0  0
 12 14  1  0  0  0  0
 14 15  1  0  0  0  0
 15 16  1  0  0  0  0
 16 21  2  0  0  0  0
 16 17  1  0  0  0  0
 17 18  2  0  0  0  0
 18 19  1  0  0  0  0
 19 20  2  0  0  0  0
 20 21  1  0  0  0  0
  2 22  1  0  0  0  0
 22 23  1  0  0  0  0
 23 28  1  0  0  0  0
 23 24  1  0  0  0  0
 24 25  1  0  0  0  0
 25 26  1  0  0  0  0
 26 27  1  0  0  0  0
 27 28  1  0  0  0  0
M  END
> <ID>
1591201

$$$$
1591202
  -OEChem-05171416412D

 38 41  0     1  0  0  0  0  0999 V2000
    5.5611    0.6228    0.0000 O   0  0  0  0  0  0  0  0  0  0  0  0
    6.0636    1.4874    0.0000 C   0  0  2  0  0  0  0  0  0  0  0  0
    6.5662    2.3519    0.0000 H   0  0  0  0  0  0  0  0  0  0  0  0
    5.1991    1.9899    0.0000 C   0  0  0  0  0  0  0  0  0  0  0  0
    4.3316    1.4925    0.0000 N   0  0  0  0  0  0  0  0  0  0  0  0
    3.4670    1.9950    0.0000 C   0  0  0  0  0  0  0  0  0  0  0  0
    2.5995    1.4976    0.0000 C   0  0  0  0  0  0  0  0  0  0  0  0
    1.7350    2.0001    0.0000 C   0  0  0  0  0  0  0  0  0  0  0  0
    0.8675    1.5027    0.0000 C   0  0  0  0  0  0  0  0  0  0  0  0
    0.8675    0.4975    0.0000 C   0  0  0  0  0  0  0  0  0  0  0  0
    0.0000    0.0000    0.0000 C   0  0  0  0  0  0  0  0  0  0  0  0
   -0.8675    0.4975    0.0000 C   0  0  0  0  0  0  0  0  0  0  0  0
   -0.8675    1.5027    0.0000 C   0  0  0  0  0  0  0  0  0  0  0  0
    0.0000    2.0104    0.0000 C   0  0  0  0  0  0  0  0  0  0  0  0
    1.7379    3.0001    0.0000 C   0  0  0  0  0  0  0  0  0  0  0  0
    0.8674    3.5027    0.0000 C   0  0  0  0  0  0  0  0  0  0  0  0
    0.8703    4.5028    0.0000 C   0  0  0  0  0  0  0  0  0  0  0  0
    1.7349    5.0053    0.0000 C   0  0  0  0  0  0  0  0  0  0  0  0
    2.6054    4.5027    0.0000 C   0  0  0  0  0  0  0  0  0  0  0  0
    2.6114    3.4976    0.0000 C   0  0  0  0  0  0  0  0  0  0  0  0
    6.9282    0.9848    0.0000 C   0  0  0  0  0  0  0  0  0  0  0  0
    7.7957    1.4823    0.0000 O   0  0  0  0  0  0  0  0  0  0  0  0
    8.6602    0.9797    0.0000 C   0  0  0  0  0  0  0  0  0  0  0  0
    9.5308    1.4823    0.0000 C   0  0  0  0  0  0  0  0  0  0  0  0
   10.3953    0.9798    0.0000 C   0  0  0  0  0  0  0  0  0  0  0  0
   10.3982   -0.0202    0.0000 C   0  0  0  0  0  0  0  0  0  0  0  0
    9.5277   -0.5228    0.0000 C   0  0  0  0  0  0  0  0  0  0  0  0
    8.6543   -0.0254    0.0000 C   0  0  0  0  0  0  0  0  0  0  0  0
   11.2650   -0.5190    0.0000 C   0  0  0  0  0  0  0  0  0  0  0  0
   11.2664   -1.5190    0.0000 O   0  0  0  0  0  0  0  0  0  0  0  0
   12.1303   -0.0177    0.0000 C   0  0  0  0  0  0  0  0  0  0  0  0
   12.9970   -0.5165    0.0000 C   0  0  0  0  0  0  0  0  0  0  0  0
   13.8623   -0.0152    0.0000 C   0  0  0  0  0  0  0  0  0  0  0  0
   13.8579    0.9900    0.0000 C   0  0  0  0  0  0  0  0  0  0  0  0
   14.7232    1.4913    0.0000 C   0  0  0  0  0  0  0  0  0  0  0  0
   15.5929    0.9976    0.0000 C   0  0  0  0  0  0  0  0  0  0  0  0
   15.5973   -0.0076    0.0000 C   0  0  0  0  0  0  0  0  0  0  0  0
   14.7321   -0.5191    0.0000 C   0  0  0  0  0  0  0  0  0  0  0  0
  1  2  1  0  0  0  0
  2  3  1  1  0  0  0
  2  4  1  0  0  0  0
  4  5  1  0  0  0  0
  5  6  1  0  0  0  0
  6  7  1  0  0  0  0
  7  8  1  0  0  0  0
  8  9  1  0  0  0  0
  9 14  2  0  0  0  0
  9 10  1  0  0  0  0
 10 11  2  0  0  0  0
 11 12  1  0  0  0  0
 12 13  2  0  0  0  0
 13 14  1  0  0  0  0
  8 15  1  0  0  0  0
 15 20  2  0  0  0  0
 15 16  1  0  0  0  0
 16 17  2  0  0  0  0
 17 18  1  0  0  0  0
 18 19  2  0  0  0  0
 19 20  1  0  0  0  0
  2 21  1  0  0  0  0
 21 22  1  0  0  0  0
 22 23  1  0  0  0  0
 23 28  2  0  0  0  0
 23 24  1  0  0  0  0
 24 25  2  0  0  0  0
 25 26  1  0  0  0  0
 26 27  2  0  0  0  0
 27 28  1  0  0  0  0
 26 29  1  0  0  0  0
 29 30  2  0  0  0  0
 29 31  1  0  0  0  0
 31 32  1  0  0  0  0
 32 33  1  0  0  0  0
 33 38  2  0  0  0  0
 33 34  1  0  0  0  0
 34 35  2  0  0  0  0
 35 36  1  0  0  0  0
 36 37  2  0  0  0  0
 37 38  1  0  0  0  0
M  END
> <ID>
1591202

$$$$
1591203
  -OEChem-05171416412D

 43 47  0     1  0  0  0  0  0999 V2000
    0.3660    4.3764    0.0000 O   0  0  0  0  0  0  0  0  0  0  0  0
    0.8660    3.5104    0.0000 C   0  0  1  0  0  0  0  0  0  0  0  0
    1.3660    2.6444    0.0000 H   0  0  0  0  0  0  0  0  0  0  0  0
    1.7321    4.0104    0.0000 C   0  0  0  0  0  0  0  0  0  0  0  0
    1.7321    5.0104    0.0000 O   0  0  0  0  0  0  0  0  0  0  0  0
    2.5981    5.5104    0.0000 C   0  0  0  0  0  0  0  0  0  0  0  0
    3.4649    5.0116    0.0000 C   0  0  0  0  0  0  0  0  0  0  0  0
    4.3331    5.5079    0.0000 C   0  0  0  0  0  0  0  0  0  0  0  0
    4.3345    6.5131    0.0000 C   0  0  0  0  0  0  0  0  0  0  0  0
    5.2028    7.0093    0.0000 O   0  0  0  0  0  0  0  0  0  0  0  0
    5.2072    8.0093    0.0000 C   0  0  0  0  0  0  0  0  0  0  0  0
    6.0754    8.5054    0.0000 C   0  0  0  0  0  0  0  0  0  0  0  0
    6.0768    9.5106    0.0000 C   0  0  0  0  0  0  0  0  0  0  0  0
    6.9451   10.0069    0.0000 C   0  0  0  0  0  0  0  0  0  0  0  0
    7.8118    9.5081    0.0000 C   0  0  0  0  0  0  0  0  0  0  0  0
    7.8104    8.5029    0.0000 C   0  0  0  0  0  0  0  0  0  0  0  0
    6.9421    7.9965    0.0000 C   0  0  0  0  0  0  0  0  0  0  0  0
    3.4678    7.0220    0.0000 C   0  0  0  0  0  0  0  0  0  0  0  0
    2.5995    6.5156    0.0000 C   0  0  0  0  0  0  0  0  0  0  0  0
    1.7328    7.0143    0.0000 C   0  0  0  0  0  0  0  0  0  0  0  0
    1.7313    8.0143    0.0000 O   0  0  0  0  0  0  0  0  0  0  0  0
    0.8675    6.5130    0.0000 C   0  0  0  0  0  0  0  0  0  0  0  0
    0.0007    7.0117    0.0000 C   0  0  0  0  0  0  0  0  0  0  0  0
   -0.8646    6.5104    0.0000 C   0  0  0  0  0  0  0  0  0  0  0  0
   -0.8601    5.5052    0.0000 C   0  0  0  0  0  0  0  0  0  0  0  0
   -1.7254    5.0039    0.0000 C   0  0  0  0  0  0  0  0  0  0  0  0
   -2.5951    5.4975    0.0000 C   0  0  0  0  0  0  0  0  0  0  0  0
   -2.5995    6.5027    0.0000 C   0  0  0  0  0  0  0  0  0  0  0  0
   -1.7343    7.0142    0.0000 C   0  0  0  0  0  0  0  0  0  0  0  0
   -0.0000    3.0104    0.0000 C   0  0  0  0  0  0  0  0  0  0  0  0
   -0.0000    2.0104    0.0000 N   0  0  0  0  0  0  0  0  0  0  0  0
   -0.8675    1.5027    0.0000 C   0  0  0  0  0  0  0  0  0  0  0  0
   -0.8675    0.4975    0.0000 C   0  0  0  0  0  0  0  0  0  0  0  0
    0.0000    0.0000    0.0000 C   0  0  0  0  0  0  0  0  0  0  0  0
    0.6420   -0.7667    0.0000 O   0  0  0  0  0  0  0  0  0  0  0  0
    0.8675    0.4975    0.0000 C   0  0  0  0  0  0  0  0  0  0  0  0
    0.8675    1.5027    0.0000 C   0  0  0  0  0  0  0  0  0  0  0  0
   -0.6420   -0.7667    0.0000 C   0  0  0  0  0  0  0  0  0  0  0  0
   -0.2946   -1.7099    0.0000 C   0  0  0  0  0  0  0  0  0  0  0  0
   -0.9366   -2.4766    0.0000 C   0  0  0  0  0  0  0  0  0  0  0  0
   -1.9226   -2.3097    0.0000 C   0  0  0  0  0  0  0  0  0  0  0  0
   -2.2701   -1.3665    0.0000 C   0  0  0  0  0  0  0  0  0  0  0  0
   -1.6316   -0.5902    0.0000 C   0  0  0  0  0  0  0  0  0  0  0  0
  1  2  1  0  0  0  0
  2  3  1  6  0  0  0
  2  4  1  0  0  0  0
  4  5  1  0  0  0  0
  5  6  1  0  0  0  0
  6 19  2  0  0  0  0
  6  7  1  0  0  0  0
  7  8  2  0  0  0  0
  8  9  1  0  0  0  0
  9 10  1  0  0  0  0
 10 11  1  0  0  0  0
 11 12  1  0  0  0  0
 12 17  2  0  0  0  0
 12 13  1  0  0  0  0
 13 14  2  0  0  0  0
 14 15  1  0  0  0  0
 15 16  2  0  0  0  0
 16 17  1  0  0  0  0
  9 18  2  0  0  0  0
 18 19  1  0  0  0  0
 19 20  1  0  0  0  0
 20 21  2  0  0  0  0
 20 22  1  0  0  0  0
 22 23  1  0  0  0  0
 23 24  1  0  0  0  0
 24 29  2  0  0  0  0
 24 25  1  0  0  0  0
 25 26  2  0  0  0  0
 26 27  1  0  0  0  0
 27 28  2  0  0  0  0
 28 29  1  0  0  0  0
  2 30  1  0  0  0  0
 30 31  1  0  0  0  0
 31 37  1  0  0  0  0
 31 32  1  0  0  0  0
 32 33  1  0  0  0  0
 33 34  1  0  0  0  0
 34 35  1  0  0  0  0
 34 36  1  0  0  0  0
 36 37  1  0  0  0  0
 34 38  1  0  0  0  0
 38 43  2  0  0  0  0
 38 39  1  0  0  0  0
 39 40  2  0  0  0  0
 40 41  1  0  0  0  0
 41 42  2  0  0  0  0
 42 43  1  0  0  0  0
M  END
> <ID>
1591203

$$$$
1591204
  -OEChem-05171416412D

 33 35  0     1  0  0  0  0  0999 V2000
    0.0014    5.0126    0.0000 C   0  0  0  0  0  0  0  0  0  0  0  0
    0.0014    4.0126    0.0000 C   0  0  0  0  0  0  0  0  0  0  0  0
    1.0014    4.0126    0.0000 C   0  0  0  0  0  0  0  0  0  0  0  0
   -0.9986    4.0126    0.0000 C   0  0  0  0  0  0  0  0  0  0  0  0
    0.0014    3.0126    0.0000 O   0  0  0  0  0  0  0  0  0  0  0  0
    0.8674    2.5126    0.0000 C   0  0  0  0  0  0  0  0  0  0  0  0
    1.7334    3.0126    0.0000 O   0  0  0  0  0  0  0  0  0  0  0  0
    0.8674    1.5126    0.0000 N   0  0  0  0  0  0  0  0  0  0  0  0
    0.0000    1.0051    0.0000 C   0  0  0  0  0  0  0  0  0  0  0  0
    0.0000    0.0000    0.0000 C   0  0  0  0  0  0  0  0  0  0  0  0
    0.8674   -0.4976    0.0000 N   0  0  0  0  0  0  0  0  0  0  0  0
    0.8674   -1.4976    0.0000 C   0  0  0  0  0  0  0  0  0  0  0  0
    1.7334   -1.9976    0.0000 C   0  0  1  0  0  0  0  0  0  0  0  0
    2.2334   -1.1316    0.0000 H   0  0  0  0  0  0  0  0  0  0  0  0
    1.2334   -2.8636    0.0000 O   0  0  0  0  0  0  0  0  0  0  0  0
    2.5995   -2.4976    0.0000 C   0  0  0  0  0  0  0  0  0  0  0  0
    3.4655   -1.9976    0.0000 O   0  0  0  0  0  0  0  0  0  0  0  0
    4.3315   -2.4976    0.0000 C   0  0  0  0  0  0  0  0  0  0  0  0
    5.1983   -1.9988    0.0000 C   0  0  0  0  0  0  0  0  0  0  0  0
    6.0665   -2.4951    0.0000 C   0  0  0  0  0  0  0  0  0  0  0  0
    6.0680   -3.5003    0.0000 C   0  0  0  0  0  0  0  0  0  0  0  0
    5.2012   -4.0092    0.0000 C   0  0  0  0  0  0  0  0  0  0  0  0
    4.3330   -3.5028    0.0000 C   0  0  0  0  0  0  0  0  0  0  0  0
    3.4662   -4.0015    0.0000 C   0  0  0  0  0  0  0  0  0  0  0  0
    2.6009   -3.5002    0.0000 O   0  0  0  0  0  0  0  0  0  0  0  0
    3.4647   -5.0015    0.0000 C   0  0  0  0  0  0  0  0  0  0  0  0
    4.3359   -5.5028    0.0000 C   0  0  0  0  0  0  0  0  0  0  0  0
    4.3345   -6.5029    0.0000 C   0  0  0  0  0  0  0  0  0  0  0  0
    3.4706   -7.0066    0.0000 C   0  0  0  0  0  0  0  0  0  0  0  0
    2.5994   -6.5053    0.0000 C   0  0  0  0  0  0  0  0  0  0  0  0
    2.5920   -5.5002    0.0000 C   0  0  0  0  0  0  0  0  0  0  0  0
    1.7348    0.0000    0.0000 C   0  0  0  0  0  0  0  0  0  0  0  0
    1.7348    1.0051    0.0000 C   0  0  0  0  0  0  0  0  0  0  0  0
  1  2  1  0  0  0  0
  2  3  1  0  0  0  0
  2  4  1  0  0  0  0
  2  5  1  0  0  0  0
  5  6  1  0  0  0  0
  6  7  2  0  0  0  0
  6  8  1  0  0  0  0
  8 33  1  0  0  0  0
  8  9  1  0  0  0  0
  9 10  1  0  0  0  0
 10 11  1  0  0  0  0
 11 12  1  0  0  0  0
 12 13  1  0  0  0  0
 13 14  1  1  0  0  0
 13 15  1  0  0  0  0
 13 16  1  0  0  0  0
 16 17  1  0  0  0  0
 17 18  1  0  0  0  0
 18 23  2  0  0  0  0
 18 19  1  0  0  0  0
 19 20  2  0  0  0  0
 20 21  1  0  0  0  0
 21 22  2  0  0  0  0
 22 23  1  0  0  0  0
 23 24  1  0  0  0  0
 24 25  2  0  0  0  0
 24 26  1  0  0  0  0
 26 31  2  0  0  0  0
 26 27  1  0  0  0  0
 27 28  2  0  0  0  0
 28 29  1  0  0  0  0
 29 30  2  0  0  0  0
 30 31  1  0  0  0  0
 11 32  1  0  0  0  0
 32 33  1  0  0  0  0
M  END
> <ID>
1591204

$$$$
1591205
  -OEChem-05171416412D

 22 22  0     1  0  0  0  0  0999 V2000
    4.3280   -3.5038    0.0000 C   0  0  0  0  0  0  0  0  0  0  0  0
    4.3294   -2.5038    0.0000 C   0  0  0  0  0  0  0  0  0  0  0  0
    3.4641   -2.0025    0.0000 C   0  0  0  0  0  0  0  0  0  0  0  0
    5.1962   -2.0050    0.0000 N   0  0  0  0  0  0  0  0  0  0  0  0
    5.1976   -1.0050    0.0000 C   0  0  0  0  0  0  0  0  0  0  0  0
    4.3323   -0.5038    0.0000 C   0  0  1  0  0  0  0  0  0  0  0  0
    3.8311   -1.3691    0.0000 H   0  0  0  0  0  0  0  0  0  0  0  0
    4.8336    0.3615    0.0000 O   0  0  0  0  0  0  0  0  0  0  0  0
    3.4670   -0.0025    0.0000 C   0  0  0  0  0  0  0  0  0  0  0  0
    2.6003   -0.5013    0.0000 O   0  0  0  0  0  0  0  0  0  0  0  0
    1.7350    0.0000    0.0000 C   0  0  0  0  0  0  0  0  0  0  0  0
    0.8675   -0.4975    0.0000 C   0  0  0  0  0  0  0  0  0  0  0  0
    0.0000    0.0000    0.0000 C   0  0  0  0  0  0  0  0  0  0  0  0
   -0.0000    1.0052    0.0000 C   0  0  0  0  0  0  0  0  0  0  0  0
    0.8675    1.5129    0.0000 C   0  0  0  0  0  0  0  0  0  0  0  0
    1.7350    1.0052    0.0000 C   0  0  0  0  0  0  0  0  0  0  0  0
    2.6025    1.5026    0.0000 C   0  0  0  0  0  0  0  0  0  0  0  0
    3.4670    1.0001    0.0000 O   0  0  0  0  0  0  0  0  0  0  0  0
    2.6054    2.5026    0.0000 C   0  0  0  0  0  0  0  0  0  0  0  0
    6.0615   -2.5063    0.0000 C   0  0  0  0  0  0  0  0  0  0  0  0
    6.9282   -2.0075    0.0000 C   0  0  0  0  0  0  0  0  0  0  0  0
    6.0600   -3.5063    0.0000 C   0  0  0  0  0  0  0  0  0  0  0  0
  1  2  1  0  0  0  0
  2  3  1  0  0  0  0
  2  4  1  0  0  0  0
  4  5  1  0  0  0  0
  5  6  1  0  0  0  0
  6  7  1  1  0  0  0
  6  8  1  0  0  0  0
  6  9  1  0  0  0  0
  9 10  1  0  0  0  0
 10 11  1  0  0  0  0
 11 16  2  0  0  0  0
 11 12  1  0  0  0  0
 12 13  2  0  0  0  0
 13 14  1  0  0  0  0
 14 15  2  0  0  0  0
 15 16  1  0  0  0  0
 16 17  1  0  0  0  0
 17 18  2  0  0  0  0
 17 19  1  0  0  0  0
  4 20  1  0  0  0  0
 20 21  1  0  0  0  0
 20 22  1  0  0  0  0
M  END
> <ID>
1591205

$$$$
1591206
  -OEChem-05171416412D

 36 39  0     1  0  0  0  0  0999 V2000
    1.2334    3.8786    0.0000 O   0  0  0  0  0  0  0  0  0  0  0  0
    1.7334    3.0126    0.0000 C   0  0  1  0  0  0  0  0  0  0  0  0
    2.2334    2.1466    0.0000 H   0  0  0  0  0  0  0  0  0  0  0  0
    2.5995    3.5126    0.0000 C   0  0  0  0  0  0  0  0  0  0  0  0
    2.5995    4.5126    0.0000 O   0  0  0  0  0  0  0  0  0  0  0  0
    3.4655    5.0126    0.0000 C   0  0  0  0  0  0  0  0  0  0  0  0
    4.3323    4.5138    0.0000 C   0  0  0  0  0  0  0  0  0  0  0  0
    5.2005    5.0101    0.0000 C   0  0  0  0  0  0  0  0  0  0  0  0
    5.2019    6.0153    0.0000 C   0  0  0  0  0  0  0  0  0  0  0  0
    4.3352    6.5242    0.0000 C   0  0  0  0  0  0  0  0  0  0  0  0
    3.4669    6.0178    0.0000 C   0  0  0  0  0  0  0  0  0  0  0  0
    2.6002    6.5165    0.0000 C   0  0  1  0  0  0  0  0  0  0  0  0
    3.0989    7.3833    0.0000 H   0  0  0  0  0  0  0  0  0  0  0  0
    2.1015    5.6497    0.0000 O   0  0  0  0  0  0  0  0  0  0  0  0
    1.7334    7.0152    0.0000 C   0  0  0  0  0  0  0  0  0  0  0  0
    1.7319    8.0152    0.0000 C   0  0  0  0  0  0  0  0  0  0  0  0
    0.8651    8.5139    0.0000 C   0  0  0  0  0  0  0  0  0  0  0  0
    0.8666    9.5191    0.0000 C   0  0  0  0  0  0  0  0  0  0  0  0
   -0.0002   10.0179    0.0000 C   0  0  0  0  0  0  0  0  0  0  0  0
   -0.8684    9.5216    0.0000 C   0  0  0  0  0  0  0  0  0  0  0  0
   -0.8699    8.5164    0.0000 C   0  0  0  0  0  0  0  0  0  0  0  0
   -0.0031    8.0075    0.0000 C   0  0  0  0  0  0  0  0  0  0  0  0
    0.8674    2.5126    0.0000 C   0  0  0  0  0  0  0  0  0  0  0  0
    0.8674    1.5126    0.0000 N   0  0  0  0  0  0  0  0  0  0  0  0
    0.0000    1.0051    0.0000 C   0  0  0  0  0  0  0  0  0  0  0  0
    0.0000    0.0000    0.0000 C   0  0  0  0  0  0  0  0  0  0  0  0
    0.8674   -0.4976    0.0000 N   0  0  0  0  0  0  0  0  0  0  0  0
    0.8674   -1.4976    0.0000 C   0  0  0  0  0  0  0  0  0  0  0  0
    1.7334   -1.9976    0.0000 C   0  0  0  0  0  0  0  0  0  0  0  0
    2.6025   -1.4924    0.0000 C   0  0  0  0  0  0  0  0  0  0  0  0
    3.4685   -1.9924    0.0000 C   0  0  0  0  0  0  0  0  0  0  0  0
    3.4744   -2.9924    0.0000 C   0  0  0  0  0  0  0  0  0  0  0  0
    2.6054   -3.4976    0.0000 C   0  0  0  0  0  0  0  0  0  0  0  0
    1.7305   -3.0027    0.0000 C   0  0  0  0  0  0  0  0  0  0  0  0
    1.7348    0.0000    0.0000 C   0  0  0  0  0  0  0  0  0  0  0  0
    1.7348    1.0051    0.0000 C   0  0  0  0  0  0  0  0  0  0  0  0
  1  2  1  0  0  0  0
  2  3  1  6  0  0  0
  2  4  1  0  0  0  0
  4  5  1  0  0  0  0
  5  6  1  0  0  0  0
  6 11  2  0  0  0  0
  6  7  1  0  0  0  0
  7  8  2  0  0  0  0
  8  9  1  0  0  0  0
  9 10  2  0  0  0  0
 10 11  1  0  0  0  0
 11 12  1  0  0  0  0
 12 13  1  6  0  0  0
 12 14  1  0  0  0  0
 12 15  1  0  0  0  0
 15 16  1  0  0  0  0
 16 17  1  0  0  0  0
 17 22  2  0  0  0  0
 17 18  1  0  0  0  0
 18 19  2  0  0  0  0
 19 20  1  0  0  0  0
 20 21  2  0  0  0  0
 21 22  1  0  0  0  0
  2 23  1  0  0  0  0
 23 24  1  0  0  0  0
 24 36  1  0  0  0  0
 24 25  1  0  0  0  0
 25 26  1  0  0  0  0
 26 27  1  0  0  0  0
 27 28  1  0  0  0  0
 28 29  1  0  0  0  0
 29 34  2  0  0  0  0
 29 30  1  0  0  0  0
 30 31  2  0  0  0  0
 31 32  1  0  0  0  0
 32 33  2  0  0  0  0
 33 34  1  0  0  0  0
 27 35  1  0  0  0  0
 35 36  1  0  0  0  0
M  END
> <ID>
1591206

$$$$
1591207
  -OEChem-05171416412D

 37 40  0     1  0  0  0  0  0999 V2000
    1.0970    5.6482    0.0000 C   0  0  0  0  0  0  0  0  0  0  0  0
    2.0970    5.6497    0.0000 O   0  0  0  0  0  0  0  0  0  0  0  0
    2.5957    6.5165    0.0000 C   0  0  1  0  0  0  0  0  0  0  0  0
    3.0944    7.3833    0.0000 H   0  0  0  0  0  0  0  0  0  0  0  0
    1.7290    7.0152    0.0000 C   0  0  0  0  0  0  0  0  0  0  0  0
    1.7275    8.0152    0.0000 C   0  0  0  0  0  0  0  0  0  0  0  0
    0.8607    8.5139    0.0000 C   0  0  0  0  0  0  0  0  0  0  0  0
    0.8621    9.5191    0.0000 C   0  0  0  0  0  0  0  0  0  0  0  0
   -0.0046   10.0179    0.0000 C   0  0  0  0  0  0  0  0  0  0  0  0
   -0.8729    9.5216    0.0000 C   0  0  0  0  0  0  0  0  0  0  0  0
   -0.8743    8.5164    0.0000 C   0  0  0  0  0  0  0  0  0  0  0  0
   -0.0075    8.0075    0.0000 C   0  0  0  0  0  0  0  0  0  0  0  0
    3.4625    6.0178    0.0000 C   0  0  0  0  0  0  0  0  0  0  0  0
    4.3285    6.5179    0.0000 C   0  0  0  0  0  0  0  0  0  0  0  0
    5.1975    6.0229    0.0000 C   0  0  0  0  0  0  0  0  0  0  0  0
    5.2005    5.0177    0.0000 C   0  0  0  0  0  0  0  0  0  0  0  0
    4.3345    4.5075    0.0000 C   0  0  0  0  0  0  0  0  0  0  0  0
    3.4655    5.0126    0.0000 C   0  0  0  0  0  0  0  0  0  0  0  0
    2.5995    4.5126    0.0000 O   0  0  0  0  0  0  0  0  0  0  0  0
    2.5995    3.5126    0.0000 C   0  0  0  0  0  0  0  0  0  0  0  0
    1.7334    3.0126    0.0000 C   0  0  2  0  0  0  0  0  0  0  0  0
    2.2334    2.1466    0.0000 H   0  0  0  0  0  0  0  0  0  0  0  0
    1.2334    3.8786    0.0000 O   0  0  0  0  0  0  0  0  0  0  0  0
    0.8674    2.5126    0.0000 C   0  0  0  0  0  0  0  0  0  0  0  0
    0.8674    1.5126    0.0000 N   0  0  0  0  0  0  0  0  0  0  0  0
    0.0000    1.0051    0.0000 C   0  0  0  0  0  0  0  0  0  0  0  0
    0.0000    0.0000    0.0000 C   0  0  0  0  0  0  0  0  0  0  0  0
    0.8674   -0.4976    0.0000 N   0  0  0  0  0  0  0  0  0  0  0  0
    0.8674   -1.4976    0.0000 C   0  0  0  0  0  0  0  0  0  0  0  0
    1.7334   -1.9976    0.0000 C   0  0  0  0  0  0  0  0  0  0  0  0
    2.6025   -1.4924    0.0000 C   0  0  0  0  0  0  0  0  0  0  0  0
    3.4685   -1.9924    0.0000 C   0  0  0  0  0  0  0  0  0  0  0  0
    3.4744   -2.9924    0.0000 C   0  0  0  0  0  0  0  0  0  0  0  0
    2.6054   -3.4976    0.0000 C   0  0  0  0  0  0  0  0  0  0  0  0
    1.7305   -3.0027    0.0000 C   0  0  0  0  0  0  0  0  0  0  0  0
    1.7348    0.0000    0.0000 C   0  0  0  0  0  0  0  0  0  0  0  0
    1.7348    1.0051    0.0000 C   0  0  0  0  0  0  0  0  0  0  0  0
  1  2  1  0  0  0  0
  2  3  1  0  0  0  0
  3  4  1  6  0  0  0
  3  5  1  0  0  0  0
  5  6  1  0  0  0  0
  6  7  1  0  0  0  0
  7 12  2  0  0  0  0
  7  8  1  0  0  0  0
  8  9  2  0  0  0  0
  9 10  1  0  0  0  0
 10 11  2  0  0  0  0
 11 12  1  0  0  0  0
  3 13  1  0  0  0  0
 13 18  2  0  0  0  0
 13 14  1  0  0  0  0
 14 15  2  0  0  0  0
 15 16  1  0  0  0  0
 16 17  2  0  0  0  0
 17 18  1  0  0  0  0
 18 19  1  0  0  0  0
 19 20  1  0  0  0  0
 20 21  1  0  0  0  0
 21 22  1  6  0  0  0
 21 23  1  0  0  0  0
 21 24  1  0  0  0  0
 24 25  1  0  0  0  0
 25 37  1  0  0  0  0
 25 26  1  0  0  0  0
 26 27  1  0  0  0  0
 27 28  1  0  0  0  0
 28 29  1  0  0  0  0
 29 30  1  0  0  0  0
 30 35  2  0  0  0  0
 30 31  1  0  0  0  0
 31 32  2  0  0  0  0
 32 33  1  0  0  0  0
 33 34  2  0  0  0  0
 34 35  1  0  0  0  0
 28 36  1  0  0  0  0
 36 37  1  0  0  0  0
M  END
> <ID>
1591207

$$$$
1591208
  -OEChem-05171416412D

 36 39  0     1  0  0  0  0  0999 V2000
   -0.8699    2.5113    0.0000 C   0  0  0  0  0  0  0  0  0  0  0  0
   -0.0046    3.0126    0.0000 C   0  0  0  0  0  0  0  0  0  0  0  0
   -0.0047    4.0127    0.0000 C   0  0  0  0  0  0  0  0  0  0  0  0
    0.8585    4.5177    0.0000 C   0  0  0  0  0  0  0  0  0  0  0  0
    1.7305    4.0177    0.0000 C   0  0  0  0  0  0  0  0  0  0  0  0
    1.7394    3.0126    0.0000 C   0  0  0  0  0  0  0  0  0  0  0  0
    0.8674    2.5126    0.0000 C   0  0  0  0  0  0  0  0  0  0  0  0
    0.8674    1.5126    0.0000 N   0  0  0  0  0  0  0  0  0  0  0  0
    0.0000    1.0051    0.0000 C   0  0  0  0  0  0  0  0  0  0  0  0
    0.0000    0.0000    0.0000 C   0  0  0  0  0  0  0  0  0  0  0  0
    0.8674   -0.4976    0.0000 N   0  0  0  0  0  0  0  0  0  0  0  0
    0.8674   -1.4976    0.0000 C   0  0  0  0  0  0  0  0  0  0  0  0
    1.7334   -1.9976    0.0000 C   0  0  1  0  0  0  0  0  0  0  0  0
    2.2334   -1.1316    0.0000 H   0  0  0  0  0  0  0  0  0  0  0  0
    1.2334   -2.8636    0.0000 O   0  0  0  0  0  0  0  0  0  0  0  0
    2.5995   -2.4976    0.0000 C   0  0  0  0  0  0  0  0  0  0  0  0
    3.4655   -1.9976    0.0000 O   0  0  0  0  0  0  0  0  0  0  0  0
    4.3315   -2.4976    0.0000 C   0  0  0  0  0  0  0  0  0  0  0  0
    4.3330   -3.4976    0.0000 C   0  0  0  0  0  0  0  0  0  0  0  0
    5.1968   -4.0014    0.0000 C   0  0  0  0  0  0  0  0  0  0  0  0
    6.0681   -3.5001    0.0000 C   0  0  0  0  0  0  0  0  0  0  0  0
    6.0755   -2.4950    0.0000 C   0  0  0  0  0  0  0  0  0  0  0  0
    5.2028   -1.9963    0.0000 C   0  0  0  0  0  0  0  0  0  0  0  0
    5.2013   -0.9963    0.0000 C   0  0  1  0  0  0  0  0  0  0  0  0
    6.2013   -0.9948    0.0000 H   0  0  0  0  0  0  0  0  0  0  0  0
    4.2013   -0.9978    0.0000 O   0  0  0  0  0  0  0  0  0  0  0  0
    5.1998    0.0037    0.0000 C   0  0  0  0  0  0  0  0  0  0  0  0
    6.0650    0.5050    0.0000 C   0  0  0  0  0  0  0  0  0  0  0  0
    6.0635    1.5050    0.0000 C   0  0  0  0  0  0  0  0  0  0  0  0
    6.9348    2.0064    0.0000 C   0  0  0  0  0  0  0  0  0  0  0  0
    6.9333    3.0064    0.0000 C   0  0  0  0  0  0  0  0  0  0  0  0
    6.0695    3.5102    0.0000 C   0  0  0  0  0  0  0  0  0  0  0  0
    5.1982    3.0088    0.0000 C   0  0  0  0  0  0  0  0  0  0  0  0
    5.1908    2.0037    0.0000 C   0  0  0  0  0  0  0  0  0  0  0  0
    1.7348    0.0000    0.0000 C   0  0  0  0  0  0  0  0  0  0  0  0
    1.7348    1.0051    0.0000 C   0  0  0  0  0  0  0  0  0  0  0  0
  1  2  1  0  0  0  0
  2  7  2  0  0  0  0
  2  3  1  0  0  0  0
  3  4  2  0  0  0  0
  4  5  1  0  0  0  0
  5  6  2  0  0  0  0
  6  7  1  0  0  0  0
  7  8  1  0  0  0  0
  8 36  1  0  0  0  0
  8  9  1  0  0  0  0
  9 10  1  0  0  0  0
 10 11  1  0  0  0  0
 11 12  1  0  0  0  0
 12 13  1  0  0  0  0
 13 14  1  1  0  0  0
 13 15  1  0  0  0  0
 13 16  1  0  0  0  0
 16 17  1  0  0  0  0
 17 18  1  0  0  0  0
 18 23  2  0  0  0  0
 18 19  1  0  0  0  0
 19 20  2  0  0  0  0
 20 21  1  0  0  0  0
 21 22  2  0  0  0  0
 22 23  1  0  0  0  0
 23 24  1  0  0  0  0
 24 25  1  6  0  0  0
 24 26  1  0  0  0  0
 24 27  1  0  0  0  0
 27 28  1  0  0  0  0
 28 29  1  0  0  0  0
 29 34  2  0  0  0  0
 29 30  1  0  0  0  0
 30 31  2  0  0  0  0
 31 32  1  0  0  0  0
 32 33  2  0  0  0  0
 33 34  1  0  0  0  0
 11 35  1  0  0  0  0
 35 36  1  0  0  0  0
M  END
> <ID>
1591208

$$$$
1591209
  -OEChem-05171416412D

 37 40  0     1  0  0  0  0  0999 V2000
    1.0970    5.6482    0.0000 C   0  0  0  0  0  0  0  0  0  0  0  0
    2.0970    5.6497    0.0000 O   0  0  0  0  0  0  0  0  0  0  0  0
    2.5957    6.5165    0.0000 C   0  0  1  0  0  0  0  0  0  0  0  0
    3.0944    7.3833    0.0000 H   0  0  0  0  0  0  0  0  0  0  0  0
    1.7290    7.0152    0.0000 C   0  0  0  0  0  0  0  0  0  0  0  0
    1.7275    8.0152    0.0000 C   0  0  0  0  0  0  0  0  0  0  0  0
    0.8607    8.5139    0.0000 C   0  0  0  0  0  0  0  0  0  0  0  0
    0.8621    9.5191    0.0000 C   0  0  0  0  0  0  0  0  0  0  0  0
   -0.0046   10.0179    0.0000 C   0  0  0  0  0  0  0  0  0  0  0  0
   -0.8729    9.5216    0.0000 C   0  0  0  0  0  0  0  0  0  0  0  0
   -0.8743    8.5164    0.0000 C   0  0  0  0  0  0  0  0  0  0  0  0
   -0.0075    8.0075    0.0000 C   0  0  0  0  0  0  0  0  0  0  0  0
    3.4625    6.0178    0.0000 C   0  0  0  0  0  0  0  0  0  0  0  0
    4.3285    6.5179    0.0000 C   0  0  0  0  0  0  0  0  0  0  0  0
    5.1975    6.0229    0.0000 C   0  0  0  0  0  0  0  0  0  0  0  0
    5.2005    5.0177    0.0000 C   0  0  0  0  0  0  0  0  0  0  0  0
    4.3345    4.5075    0.0000 C   0  0  0  0  0  0  0  0  0  0  0  0
    3.4655    5.0126    0.0000 C   0  0  0  0  0  0  0  0  0  0  0  0
    2.5995    4.5126    0.0000 O   0  0  0  0  0  0  0  0  0  0  0  0
    2.5995    3.5126    0.0000 C   0  0  0  0  0  0  0  0  0  0  0  0
    1.7334    3.0126    0.0000 C   0  0  2  0  0  0  0  0  0  0  0  0
    2.2334    2.1466    0.0000 H   0  0  0  0  0  0  0  0  0  0  0  0
    1.2334    3.8786    0.0000 O   0  0  0  0  0  0  0  0  0  0  0  0
    0.8674    2.5126    0.0000 C   0  0  0  0  0  0  0  0  0  0  0  0
    0.8674    1.5126    0.0000 N   0  0  0  0  0  0  0  0  0  0  0  0
    0.0000    1.0051    0.0000 C   0  0  0  0  0  0  0  0  0  0  0  0
    0.0000    0.0000    0.0000 C   0  0  0  0  0  0  0  0  0  0  0  0
    0.8674   -0.4976    0.0000 N   0  0  0  0  0  0  0  0  0  0  0  0
    1.7348    0.0000    0.0000 C   0  0  0  0  0  0  0  0  0  0  0  0
    1.7348    1.0051    0.0000 C   0  0  0  0  0  0  0  0  0  0  0  0
    0.8674   -1.4976    0.0000 C   0  0  0  0  0  0  0  0  0  0  0  0
    1.7327   -1.9989    0.0000 C   0  0  0  0  0  0  0  0  0  0  0  0
    1.7371   -2.9989    0.0000 C   0  0  0  0  0  0  0  0  0  0  0  0
    0.8673   -3.5028    0.0000 C   0  0  0  0  0  0  0  0  0  0  0  0
   -0.0069   -3.0066    0.0000 C   0  0  0  0  0  0  0  0  0  0  0  0
   -0.0024   -2.0015    0.0000 C   0  0  0  0  0  0  0  0  0  0  0  0
   -0.8677   -1.5002    0.0000 C   0  0  0  0  0  0  0  0  0  0  0  0
  1  2  1  0  0  0  0
  2  3  1  0  0  0  0
  3  4  1  6  0  0  0
  3  5  1  0  0  0  0
  5  6  1  0  0  0  0
  6  7  1  0  0  0  0
  7 12  2  0  0  0  0
  7  8  1  0  0  0  0
  8  9  2  0  0  0  0
  9 10  1  0  0  0  0
 10 11  2  0  0  0  0
 11 12  1  0  0  0  0
  3 13  1  0  0  0  0
 13 18  2  0  0  0  0
 13 14  1  0  0  0  0
 14 15  2  0  0  0  0
 15 16  1  0  0  0  0
 16 17  2  0  0  0  0
 17 18  1  0  0  0  0
 18 19  1  0  0  0  0
 19 20  1  0  0  0  0
 20 21  1  0  0  0  0
 21 22  1  6  0  0  0
 21 23  1  0  0  0  0
 21 24  1  0  0  0  0
 24 25  1  0  0  0  0
 25 30  1  0  0  0  0
 25 26  1  0  0  0  0
 26 27  1  0  0  0  0
 27 28  1  0  0  0  0
 28 29  1  0  0  0  0
 29 30  1  0  0  0  0
 28 31  1  0  0  0  0
 31 36  2  0  0  0  0
 31 32  1  0  0  0  0
 32 33  2  0  0  0  0
 33 34  1  0  0  0  0
 34 35  2  0  0  0  0
 35 36  1  0  0  0  0
 36 37  1  0  0  0  0
M  END
> <ID>
1591209

$$$$
1591210
  -OEChem-05171416412D

 37 40  0     1  0  0  0  0  0999 V2000
    2.5935    4.5228    0.0000 C   0  0  0  0  0  0  0  0  0  0  0  0
    1.7305    4.0177    0.0000 C   0  0  0  0  0  0  0  0  0  0  0  0
    0.8585    4.5177    0.0000 C   0  0  0  0  0  0  0  0  0  0  0  0
   -0.0047    4.0127    0.0000 C   0  0  0  0  0  0  0  0  0  0  0  0
   -0.0046    3.0126    0.0000 C   0  0  0  0  0  0  0  0  0  0  0  0
    0.8674    2.5126    0.0000 C   0  0  0  0  0  0  0  0  0  0  0  0
    0.8674    1.5126    0.0000 N   0  0  0  0  0  0  0  0  0  0  0  0
    0.0000    1.0051    0.0000 C   0  0  0  0  0  0  0  0  0  0  0  0
    0.0000    0.0000    0.0000 C   0  0  0  0  0  0  0  0  0  0  0  0
    0.8674   -0.4976    0.0000 N   0  0  0  0  0  0  0  0  0  0  0  0
    0.8674   -1.4976    0.0000 C   0  0  0  0  0  0  0  0  0  0  0  0
    1.7334   -1.9976    0.0000 C   0  0  1  0  0  0  0  0  0  0  0  0
    2.2334   -1.1316    0.0000 H   0  0  0  0  0  0  0  0  0  0  0  0
    1.2334   -2.8636    0.0000 O   0  0  0  0  0  0  0  0  0  0  0  0
    2.5995   -2.4976    0.0000 C   0  0  0  0  0  0  0  0  0  0  0  0
    3.4655   -1.9976    0.0000 O   0  0  0  0  0  0  0  0  0  0  0  0
    4.3315   -2.4976    0.0000 C   0  0  0  0  0  0  0  0  0  0  0  0
    4.3330   -3.4976    0.0000 C   0  0  0  0  0  0  0  0  0  0  0  0
    5.1968   -4.0014    0.0000 C   0  0  0  0  0  0  0  0  0  0  0  0
    6.0681   -3.5001    0.0000 C   0  0  0  0  0  0  0  0  0  0  0  0
    6.0755   -2.4950    0.0000 C   0  0  0  0  0  0  0  0  0  0  0  0
    5.2028   -1.9963    0.0000 C   0  0  0  0  0  0  0  0  0  0  0  0
    5.2013   -0.9963    0.0000 C   0  0  1  0  0  0  0  0  0  0  0  0
    6.2013   -0.9948    0.0000 H   0  0  0  0  0  0  0  0  0  0  0  0
    4.2013   -0.9978    0.0000 O   0  0  0  0  0  0  0  0  0  0  0  0
    5.1998    0.0037    0.0000 C   0  0  0  0  0  0  0  0  0  0  0  0
    6.0650    0.5050    0.0000 C   0  0  0  0  0  0  0  0  0  0  0  0
    6.0635    1.5050    0.0000 C   0  0  0  0  0  0  0  0  0  0  0  0
    6.9348    2.0064    0.0000 C   0  0  0  0  0  0  0  0  0  0  0  0
    6.9333    3.0064    0.0000 C   0  0  0  0  0  0  0  0  0  0  0  0
    6.0695    3.5102    0.0000 C   0  0  0  0  0  0  0  0  0  0  0  0
    5.1982    3.0088    0.0000 C   0  0  0  0  0  0  0  0  0  0  0  0
    5.1908    2.0037    0.0000 C   0  0  0  0  0  0  0  0  0  0  0  0
    1.7348    0.0000    0.0000 C   0  0  0  0  0  0  0  0  0  0  0  0
    1.7348    1.0051    0.0000 C   0  0  0  0  0  0  0  0  0  0  0  0
    1.7394    3.0126    0.0000 C   0  0  0  0  0  0  0  0  0  0  0  0
    2.6069    2.5152    0.0000 C   0  0  0  0  0  0  0  0  0  0  0  0
  1  2  1  0  0  0  0
  2 36  2  0  0  0  0
  2  3  1  0  0  0  0
  3  4  2  0  0  0  0
  4  5  1  0  0  0  0
  5  6  2  0  0  0  0
  6  7  1  0  0  0  0
  7 35  1  0  0  0  0
  7  8  1  0  0  0  0
  8  9  1  0  0  0  0
  9 10  1  0  0  0  0
 10 11  1  0  0  0  0
 11 12  1  0  0  0  0
 12 13  1  1  0  0  0
 12 14  1  0  0  0  0
 12 15  1  0  0  0  0
 15 16  1  0  0  0  0
 16 17  1  0  0  0  0
 17 22  2  0  0  0  0
 17 18  1  0  0  0  0
 18 19  2  0  0  0  0
 19 20  1  0  0  0  0
 20 21  2  0  0  0  0
 21 22  1  0  0  0  0
 22 23  1  0  0  0  0
 23 24  1  6  0  0  0
 23 25  1  0  0  0  0
 23 26  1  0  0  0  0
 26 27  1  0  0  0  0
 27 28  1  0  0  0  0
 28 33  2  0  0  0  0
 28 29  1  0  0  0  0
 29 30  2  0  0  0  0
 30 31  1  0  0  0  0
 31 32  2  0  0  0  0
 32 33  1  0  0  0  0
 10 34  1  0  0  0  0
 34 35  1  0  0  0  0
  6 36  1  0  0  0  0
 36 37  1  0  0  0  0
M  END
> <ID>
1591210

$$$$
1591211
  -OEChem-05171416412D

 29 31  0     1  0  0  0  0  0999 V2000
    0.8637    6.5139    0.0000 C   0  0  0  0  0  0  0  0  0  0  0  0
    1.7305    6.0152    0.0000 C   0  0  0  0  0  0  0  0  0  0  0  0
    2.5957    6.5165    0.0000 C   0  0  0  0  0  0  0  0  0  0  0  0
    2.5942    7.5165    0.0000 O   0  0  0  0  0  0  0  0  0  0  0  0
    3.4625    6.0178    0.0000 C   0  0  0  0  0  0  0  0  0  0  0  0
    4.3285    6.5179    0.0000 C   0  0  0  0  0  0  0  0  0  0  0  0
    5.1975    6.0229    0.0000 C   0  0  0  0  0  0  0  0  0  0  0  0
    5.2005    5.0177    0.0000 C   0  0  0  0  0  0  0  0  0  0  0  0
    4.3345    4.5075    0.0000 C   0  0  0  0  0  0  0  0  0  0  0  0
    3.4655    5.0126    0.0000 C   0  0  0  0  0  0  0  0  0  0  0  0
    2.5995    4.5126    0.0000 O   0  0  0  0  0  0  0  0  0  0  0  0
    2.5995    3.5126    0.0000 C   0  0  0  0  0  0  0  0  0  0  0  0
    1.7334    3.0126    0.0000 C   0  0  2  0  0  0  0  0  0  0  0  0
    2.2334    2.1466    0.0000 H   0  0  0  0  0  0  0  0  0  0  0  0
    1.2334    3.8786    0.0000 O   0  0  0  0  0  0  0  0  0  0  0  0
    0.8674    2.5126    0.0000 C   0  0  0  0  0  0  0  0  0  0  0  0
    0.8674    1.5126    0.0000 N   0  0  0  0  0  0  0  0  0  0  0  0
    0.0000    1.0051    0.0000 C   0  0  0  0  0  0  0  0  0  0  0  0
    0.0000    0.0000    0.0000 C   0  0  0  0  0  0  0  0  0  0  0  0
    0.8674   -0.4976    0.0000 N   0  0  0  0  0  0  0  0  0  0  0  0
    1.7348    0.0000    0.0000 C   0  0  0  0  0  0  0  0  0  0  0  0
    1.7348    1.0051    0.0000 C   0  0  0  0  0  0  0  0  0  0  0  0
    0.8674   -1.4976    0.0000 C   0  0  0  0  0  0  0  0  0  0  0  0
    1.7394   -1.9976    0.0000 C   0  0  0  0  0  0  0  0  0  0  0  0
    1.7395   -2.9977    0.0000 C   0  0  0  0  0  0  0  0  0  0  0  0
    0.8763   -3.5027    0.0000 C   0  0  0  0  0  0  0  0  0  0  0  0
    0.8807   -4.5027    0.0000 F   0  0  0  0  0  0  0  0  0  0  0  0
    0.0043   -3.0027    0.0000 C   0  0  0  0  0  0  0  0  0  0  0  0
   -0.0046   -1.9976    0.0000 C   0  0  0  0  0  0  0  0  0  0  0  0
  1  2  1  0  0  0  0
  2  3  1  0  0  0  0
  3  4  2  0  0  0  0
  3  5  1  0  0  0  0
  5 10  2  0  0  0  0
  5  6  1  0  0  0  0
  6  7  2  0  0  0  0
  7  8  1  0  0  0  0
  8  9  2  0  0  0  0
  9 10  1  0  0  0  0
 10 11  1  0  0  0  0
 11 12  1  0  0  0  0
 12 13  1  0  0  0  0
 13 14  1  6  0  0  0
 13 15  1  0  0  0  0
 13 16  1  0  0  0  0
 16 17  1  0  0  0  0
 17 22  1  0  0  0  0
 17 18  1  0  0  0  0
 18 19  1  0  0  0  0
 19 20  1  0  0  0  0
 20 21  1  0  0  0  0
 21 22  1  0  0  0  0
 20 23  1  0  0  0  0
 23 29  2  0  0  0  0
 23 24  1  0  0  0  0
 24 25  2  0  0  0  0
 25 26  1  0  0  0  0
 26 27  1  0  0  0  0
 26 28  2  0  0  0  0
 28 29  1  0  0  0  0
M  END
> <ID>
1591211

$$$$
1591212
  -OEChem-05171416412D

 23 23  0     1  0  0  0  0  0999 V2000
    4.3323   -0.5038    0.0000 C   0  0  0  0  0  0  0  0  0  0  0  0
    3.4670   -0.0025    0.0000 C   0  0  0  0  0  0  0  0  0  0  0  0
    2.6003   -0.5013    0.0000 C   0  0  0  0  0  0  0  0  0  0  0  0
    2.5988   -1.5013    0.0000 O   0  0  0  0  0  0  0  0  0  0  0  0
    1.7350    0.0000    0.0000 C   0  0  0  0  0  0  0  0  0  0  0  0
    0.8675   -0.4975    0.0000 C   0  0  0  0  0  0  0  0  0  0  0  0
    0.0000    0.0000    0.0000 C   0  0  0  0  0  0  0  0  0  0  0  0
   -0.0000    1.0052    0.0000 C   0  0  0  0  0  0  0  0  0  0  0  0
    0.8675    1.5129    0.0000 C   0  0  0  0  0  0  0  0  0  0  0  0
    1.7350    1.0052    0.0000 C   0  0  0  0  0  0  0  0  0  0  0  0
    2.6025    1.5026    0.0000 O   0  0  0  0  0  0  0  0  0  0  0  0
    2.6054    2.5026    0.0000 C   0  0  0  0  0  0  0  0  0  0  0  0
    3.4729    3.0001    0.0000 C   0  0  2  0  0  0  0  0  0  0  0  0
    2.9755    3.8676    0.0000 H   0  0  0  0  0  0  0  0  0  0  0  0
    3.9704    2.1326    0.0000 O   0  0  0  0  0  0  0  0  0  0  0  0
    4.3404    3.4975    0.0000 C   0  0  0  0  0  0  0  0  0  0  0  0
    4.3434    4.4975    0.0000 N   0  0  0  0  0  0  0  0  0  0  0  0
    3.4788    5.0001    0.0000 C   0  0  0  0  0  0  0  0  0  0  0  0
    2.6113    4.5026    0.0000 C   0  0  0  0  0  0  0  0  0  0  0  0
    3.4818    6.0001    0.0000 C   0  0  0  0  0  0  0  0  0  0  0  0
    5.2109    4.9950    0.0000 C   0  0  0  0  0  0  0  0  0  0  0  0
    5.2138    5.9950    0.0000 C   0  0  0  0  0  0  0  0  0  0  0  0
    6.0754    4.4924    0.0000 C   0  0  0  0  0  0  0  0  0  0  0  0
  1  2  1  0  0  0  0
  2  3  1  0  0  0  0
  3  4  2  0  0  0  0
  3  5  1  0  0  0  0
  5 10  2  0  0  0  0
  5  6  1  0  0  0  0
  6  7  2  0  0  0  0
  7  8  1  0  0  0  0
  8  9  2  0  0  0  0
  9 10  1  0  0  0  0
 10 11  1  0  0  0  0
 11 12  1  0  0  0  0
 12 13  1  0  0  0  0
 13 14  1  6  0  0  0
 13 15  1  0  0  0  0
 13 16  1  0  0  0  0
 16 17  1  0  0  0  0
 17 18  1  0  0  0  0
 18 19  1  0  0  0  0
 18 20  1  0  0  0  0
 17 21  1  0  0  0  0
 21 22  1  0  0  0  0
 21 23  1  0  0  0  0
M  END
> <ID>
1591212

$$$$
1591213
  -OEChem-05171416412D

 29 31  0     1  0  0  0  0  0999 V2000
    0.8637    6.5139    0.0000 C   0  0  0  0  0  0  0  0  0  0  0  0
    1.7305    6.0152    0.0000 C   0  0  0  0  0  0  0  0  0  0  0  0
    2.5957    6.5165    0.0000 C   0  0  0  0  0  0  0  0  0  0  0  0
    2.5942    7.5165    0.0000 O   0  0  0  0  0  0  0  0  0  0  0  0
    3.4625    6.0178    0.0000 C   0  0  0  0  0  0  0  0  0  0  0  0
    4.3285    6.5179    0.0000 C   0  0  0  0  0  0  0  0  0  0  0  0
    5.1975    6.0229    0.0000 C   0  0  0  0  0  0  0  0  0  0  0  0
    5.2005    5.0177    0.0000 C   0  0  0  0  0  0  0  0  0  0  0  0
    4.3345    4.5075    0.0000 C   0  0  0  0  0  0  0  0  0  0  0  0
    3.4655    5.0126    0.0000 C   0  0  0  0  0  0  0  0  0  0  0  0
    2.5995    4.5126    0.0000 O   0  0  0  0  0  0  0  0  0  0  0  0
    2.5995    3.5126    0.0000 C   0  0  0  0  0  0  0  0  0  0  0  0
    1.7334    3.0126    0.0000 C   0  0  2  0  0  0  0  0  0  0  0  0
    2.2334    2.1466    0.0000 H   0  0  0  0  0  0  0  0  0  0  0  0
    1.2334    3.8786    0.0000 O   0  0  0  0  0  0  0  0  0  0  0  0
    0.8674    2.5126    0.0000 C   0  0  0  0  0  0  0  0  0  0  0  0
    0.8674    1.5126    0.0000 N   0  0  0  0  0  0  0  0  0  0  0  0
    0.0000    1.0051    0.0000 C   0  0  0  0  0  0  0  0  0  0  0  0
    0.0000    0.0000    0.0000 C   0  0  0  0  0  0  0  0  0  0  0  0
    0.8674   -0.4976    0.0000 N   0  0  0  0  0  0  0  0  0  0  0  0
    0.8674   -1.4976    0.0000 C   0  0  0  0  0  0  0  0  0  0  0  0
    1.7334   -1.9976    0.0000 C   0  0  0  0  0  0  0  0  0  0  0  0
    2.6025   -1.4924    0.0000 C   0  0  0  0  0  0  0  0  0  0  0  0
    3.4685   -1.9924    0.0000 C   0  0  0  0  0  0  0  0  0  0  0  0
    3.4744   -2.9924    0.0000 C   0  0  0  0  0  0  0  0  0  0  0  0
    2.6054   -3.4976    0.0000 C   0  0  0  0  0  0  0  0  0  0  0  0
    1.7305   -3.0027    0.0000 C   0  0  0  0  0  0  0  0  0  0  0  0
    1.7348    0.0000    0.0000 C   0  0  0  0  0  0  0  0  0  0  0  0
    1.7348    1.0051    0.0000 C   0  0  0  0  0  0  0  0  0  0  0  0
  1  2  1  0  0  0  0
  2  3  1  0  0  0  0
  3  4  2  0  0  0  0
  3  5  1  0  0  0  0
  5 10  2  0  0  0  0
  5  6  1  0  0  0  0
  6  7  2  0  0  0  0
  7  8  1  0  0  0  0
  8  9  2  0  0  0  0
  9 10  1  0  0  0  0
 10 11  1  0  0  0  0
 11 12  1  0  0  0  0
 12 13  1  0  0  0  0
 13 14  1  6  0  0  0
 13 15  1  0  0  0  0
 13 16  1  0  0  0  0
 16 17  1  0  0  0  0
 17 29  1  0  0  0  0
 17 18  1  0  0  0  0
 18 19  1  0  0  0  0
 19 20  1  0  0  0  0
 20 21  1  0  0  0  0
 21 22  1  0  0  0  0
 22 27  2  0  0  0  0
 22 23  1  0  0  0  0
 23 24  2  0  0  0  0
 24 25  1  0  0  0  0
 25 26  2  0  0  0  0
 26 27  1  0  0  0  0
 20 28  1  0  0  0  0
 28 29  1  0  0  0  0
M  END
> <ID>
1591213

$$$$
1591214
  -OEChem-05171416412D

 29 31  0     1  0  0  0  0  0999 V2000
    0.8637    6.5139    0.0000 C   0  0  0  0  0  0  0  0  0  0  0  0
    1.7305    6.0152    0.0000 C   0  0  0  0  0  0  0  0  0  0  0  0
    2.5957    6.5165    0.0000 C   0  0  0  0  0  0  0  0  0  0  0  0
    2.5942    7.5165    0.0000 O   0  0  0  0  0  0  0  0  0  0  0  0
    3.4625    6.0178    0.0000 C   0  0  0  0  0  0  0  0  0  0  0  0
    4.3285    6.5179    0.0000 C   0  0  0  0  0  0  0  0  0  0  0  0
    5.1975    6.0229    0.0000 C   0  0  0  0  0  0  0  0  0  0  0  0
    5.2005    5.0177    0.0000 C   0  0  0  0  0  0  0  0  0  0  0  0
    4.3345    4.5075    0.0000 C   0  0  0  0  0  0  0  0  0  0  0  0
    3.4655    5.0126    0.0000 C   0  0  0  0  0  0  0  0  0  0  0  0
    2.5995    4.5126    0.0000 O   0  0  0  0  0  0  0  0  0  0  0  0
    2.5995    3.5126    0.0000 C   0  0  0  0  0  0  0  0  0  0  0  0
    1.7334    3.0126    0.0000 C   0  0  2  0  0  0  0  0  0  0  0  0
    2.2334    2.1466    0.0000 H   0  0  0  0  0  0  0  0  0  0  0  0
    1.2334    3.8786    0.0000 O   0  0  0  0  0  0  0  0  0  0  0  0
    0.8674    2.5126    0.0000 C   0  0  0  0  0  0  0  0  0  0  0  0
    0.8674    1.5126    0.0000 N   0  0  0  0  0  0  0  0  0  0  0  0
    0.0000    1.0051    0.0000 C   0  0  0  0  0  0  0  0  0  0  0  0
    0.0000    0.0000    0.0000 C   0  0  0  0  0  0  0  0  0  0  0  0
    0.8674   -0.4976    0.0000 N   0  0  0  0  0  0  0  0  0  0  0  0
    1.7348    0.0000    0.0000 C   0  0  0  0  0  0  0  0  0  0  0  0
    1.7348    1.0051    0.0000 C   0  0  0  0  0  0  0  0  0  0  0  0
    0.8674   -1.4976    0.0000 C   0  0  0  0  0  0  0  0  0  0  0  0
    1.7327   -1.9989    0.0000 C   0  0  0  0  0  0  0  0  0  0  0  0
    1.7371   -2.9989    0.0000 C   0  0  0  0  0  0  0  0  0  0  0  0
    0.8673   -3.5028    0.0000 C   0  0  0  0  0  0  0  0  0  0  0  0
   -0.0069   -3.0066    0.0000 C   0  0  0  0  0  0  0  0  0  0  0  0
   -0.0024   -2.0015    0.0000 C   0  0  0  0  0  0  0  0  0  0  0  0
   -0.8677   -1.5002    0.0000 C   0  0  0  0  0  0  0  0  0  0  0  0
  1  2  1  0  0  0  0
  2  3  1  0  0  0  0
  3  4  2  0  0  0  0
  3  5  1  0  0  0  0
  5 10  2  0  0  0  0
  5  6  1  0  0  0  0
  6  7  2  0  0  0  0
  7  8  1  0  0  0  0
  8  9  2  0  0  0  0
  9 10  1  0  0  0  0
 10 11  1  0  0  0  0
 11 12  1  0  0  0  0
 12 13  1  0  0  0  0
 13 14  1  6  0  0  0
 13 15  1  0  0  0  0
 13 16  1  0  0  0  0
 16 17  1  0  0  0  0
 17 22  1  0  0  0  0
 17 18  1  0  0  0  0
 18 19  1  0  0  0  0
 19 20  1  0  0  0  0
 20 21  1  0  0  0  0
 21 22  1  0  0  0  0
 20 23  1  0  0  0  0
 23 28  2  0  0  0  0
 23 24  1  0  0  0  0
 24 25  2  0  0  0  0
 25 26  1  0  0  0  0
 26 27  2  0  0  0  0
 27 28  1  0  0  0  0
 28 29  1  0  0  0  0
M  END
> <ID>
1591214

$$$$
1591215
  -OEChem-05171416412D

 32 34  0     1  0  0  0  0  0999 V2000
    4.3323   -0.5038    0.0000 C   0  0  0  0  0  0  0  0  0  0  0  0
    3.4670   -0.0025    0.0000 C   0  0  0  0  0  0  0  0  0  0  0  0
    2.6003   -0.5013    0.0000 C   0  0  0  0  0  0  0  0  0  0  0  0
    2.5988   -1.5013    0.0000 O   0  0  0  0  0  0  0  0  0  0  0  0
    1.7350    0.0000    0.0000 C   0  0  0  0  0  0  0  0  0  0  0  0
    0.8675   -0.4975    0.0000 C   0  0  0  0  0  0  0  0  0  0  0  0
    0.0000    0.0000    0.0000 C   0  0  0  0  0  0  0  0  0  0  0  0
   -0.0000    1.0052    0.0000 C   0  0  0  0  0  0  0  0  0  0  0  0
    0.8675    1.5129    0.0000 C   0  0  0  0  0  0  0  0  0  0  0  0
    1.7350    1.0052    0.0000 C   0  0  0  0  0  0  0  0  0  0  0  0
    2.6025    1.5026    0.0000 O   0  0  0  0  0  0  0  0  0  0  0  0
    2.6054    2.5026    0.0000 C   0  0  0  0  0  0  0  0  0  0  0  0
    3.4729    3.0001    0.0000 C   0  0  2  0  0  0  0  0  0  0  0  0
    2.9755    3.8676    0.0000 H   0  0  0  0  0  0  0  0  0  0  0  0
    3.9704    2.1326    0.0000 O   0  0  0  0  0  0  0  0  0  0  0  0
    4.3404    3.4975    0.0000 C   0  0  0  0  0  0  0  0  0  0  0  0
    4.3434    4.4975    0.0000 N   0  0  0  0  0  0  0  0  0  0  0  0
    5.2109    4.9950    0.0000 C   0  0  0  0  0  0  0  0  0  0  0  0
    5.2138    5.9950    0.0000 C   0  0  0  0  0  0  0  0  0  0  0  0
    6.0813    6.4924    0.0000 C   0  0  0  0  0  0  0  0  0  0  0  0
    6.0843    7.4924    0.0000 C   0  0  0  0  0  0  0  0  0  0  0  0
    5.2138    7.9950    0.0000 C   0  0  0  0  0  0  0  0  0  0  0  0
    5.2167    8.9950    0.0000 C   0  0  0  0  0  0  0  0  0  0  0  0
    6.0813    9.4975    0.0000 C   0  0  0  0  0  0  0  0  0  0  0  0
    6.9518    8.9949    0.0000 C   0  0  0  0  0  0  0  0  0  0  0  0
    6.9577    7.9898    0.0000 C   0  0  0  0  0  0  0  0  0  0  0  0
    6.9459    5.9898    0.0000 C   0  0  0  0  0  0  0  0  0  0  0  0
    7.8164    6.4924    0.0000 C   0  0  0  0  0  0  0  0  0  0  0  0
    8.6810    5.9899    0.0000 C   0  0  0  0  0  0  0  0  0  0  0  0
    8.6839    4.9899    0.0000 C   0  0  0  0  0  0  0  0  0  0  0  0
    7.8134    4.4873    0.0000 C   0  0  0  0  0  0  0  0  0  0  0  0
    6.9400    4.9847    0.0000 C   0  0  0  0  0  0  0  0  0  0  0  0
  1  2  1  0  0  0  0
  2  3  1  0  0  0  0
  3  4  2  0  0  0  0
  3  5  1  0  0  0  0
  5 10  2  0  0  0  0
  5  6  1  0  0  0  0
  6  7  2  0  0  0  0
  7  8  1  0  0  0  0
  8  9  2  0  0  0  0
  9 10  1  0  0  0  0
 10 11  1  0  0  0  0
 11 12  1  0  0  0  0
 12 13  1  0  0  0  0
 13 14  1  6  0  0  0
 13 15  1  0  0  0  0
 13 16  1  0  0  0  0
 16 17  1  0  0  0  0
 17 18  1  0  0  0  0
 18 19  1  0  0  0  0
 19 20  1  0  0  0  0
 20 21  1  0  0  0  0
 21 26  2  0  0  0  0
 21 22  1  0  0  0  0
 22 23  2  0  0  0  0
 23 24  1  0  0  0  0
 24 25  2  0  0  0  0
 25 26  1  0  0  0  0
 20 27  1  0  0  0  0
 27 32  2  0  0  0  0
 27 28  1  0  0  0  0
 28 29  2  0  0  0  0
 29 30  1  0  0  0  0
 30 31  2  0  0  0  0
 31 32  1  0  0  0  0
M  END
> <ID>
1591215

$$$$
1591216
  -OEChem-05171416412D

 22 23  0     1  0  0  0  0  0999 V2000
   -1.7336   -1.9975    0.0000 C   0  0  0  0  0  0  0  0  0  0  0  0
   -2.6003   -2.4962    0.0000 C   0  0  0  0  0  0  0  0  0  0  0  0
   -3.4656   -1.9949    0.0000 O   0  0  0  0  0  0  0  0  0  0  0  0
   -2.6018   -3.4962    0.0000 C   0  0  0  0  0  0  0  0  0  0  0  0
   -3.4745   -3.9949    0.0000 C   0  0  0  0  0  0  0  0  0  0  0  0
   -3.4672   -5.0000    0.0000 C   0  0  0  0  0  0  0  0  0  0  0  0
   -4.3310   -5.5038    0.0000 C   0  0  0  0  0  0  0  0  0  0  0  0
   -2.5959   -5.5013    0.0000 C   0  0  0  0  0  0  0  0  0  0  0  0
   -1.7320   -4.9975    0.0000 C   0  0  0  0  0  0  0  0  0  0  0  0
   -1.7306   -3.9975    0.0000 C   0  0  0  0  0  0  0  0  0  0  0  0
   -0.8646   -3.4975    0.0000 O   0  0  0  0  0  0  0  0  0  0  0  0
   -0.8646   -2.4975    0.0000 C   0  0  0  0  0  0  0  0  0  0  0  0
    0.0015   -1.9975    0.0000 C   0  0  2  0  0  0  0  0  0  0  0  0
   -0.4985   -1.1315    0.0000 H   0  0  0  0  0  0  0  0  0  0  0  0
    0.5015   -2.8635    0.0000 O   0  0  0  0  0  0  0  0  0  0  0  0
    0.8675   -1.4975    0.0000 C   0  0  0  0  0  0  0  0  0  0  0  0
    0.8675   -0.4975    0.0000 N   0  0  0  0  0  0  0  0  0  0  0  0
    0.0000    0.0000    0.0000 C   0  0  0  0  0  0  0  0  0  0  0  0
   -0.0000    1.0052    0.0000 C   0  0  0  0  0  0  0  0  0  0  0  0
    0.8675    1.5129    0.0000 O   0  0  0  0  0  0  0  0  0  0  0  0
    1.7350    1.0052    0.0000 C   0  0  0  0  0  0  0  0  0  0  0  0
    1.7350    0.0000    0.0000 C   0  0  0  0  0  0  0  0  0  0  0  0
  1  2  1  0  0  0  0
  2  3  2  0  0  0  0
  2  4  1  0  0  0  0
  4 10  2  0  0  0  0
  4  5  1  0  0  0  0
  5  6  2  0  0  0  0
  6  7  1  0  0  0  0
  6  8  1  0  0  0  0
  8  9  2  0  0  0  0
  9 10  1  0  0  0  0
 10 11  1  0  0  0  0
 11 12  1  0  0  0  0
 12 13  1  0  0  0  0
 13 14  1  6  0  0  0
 13 15  1  0  0  0  0
 13 16  1  0  0  0  0
 16 17  1  0  0  0  0
 17 22  1  0  0  0  0
 17 18  1  0  0  0  0
 18 19  1  0  0  0  0
 19 20  1  0  0  0  0
 20 21  1  0  0  0  0
 21 22  1  0  0  0  0
M  END
> <ID>
1591216

$$$$
1591217
  -OEChem-05171416412D

 23 23  0     1  0  0  0  0  0999 V2000
   -6.0644   -0.5063    0.0000 C   0  0  0  0  0  0  0  0  0  0  0  0
   -5.1976   -1.0050    0.0000 C   0  0  0  0  0  0  0  0  0  0  0  0
   -4.3323   -0.5038    0.0000 C   0  0  0  0  0  0  0  0  0  0  0  0
   -5.1962   -2.0050    0.0000 N   0  0  0  0  0  0  0  0  0  0  0  0
   -4.3294   -2.5038    0.0000 C   0  0  0  0  0  0  0  0  0  0  0  0
   -3.4641   -2.0025    0.0000 C   0  0  1  0  0  0  0  0  0  0  0  0
   -3.9654   -1.1372    0.0000 H   0  0  0  0  0  0  0  0  0  0  0  0
   -2.9629   -2.8678    0.0000 O   0  0  0  0  0  0  0  0  0  0  0  0
   -2.5988   -1.5013    0.0000 C   0  0  0  0  0  0  0  0  0  0  0  0
   -2.6003   -0.5013    0.0000 O   0  0  0  0  0  0  0  0  0  0  0  0
   -1.7350   -0.0000    0.0000 C   0  0  0  0  0  0  0  0  0  0  0  0
   -0.8675   -0.4975    0.0000 C   0  0  0  0  0  0  0  0  0  0  0  0
    0.0000    0.0000    0.0000 C   0  0  0  0  0  0  0  0  0  0  0  0
   -0.0000    1.0052    0.0000 C   0  0  0  0  0  0  0  0  0  0  0  0
    0.8675    1.5026    0.0000 C   0  0  0  0  0  0  0  0  0  0  0  0
   -0.8675    1.5129    0.0000 C   0  0  0  0  0  0  0  0  0  0  0  0
   -1.7350    1.0052    0.0000 C   0  0  0  0  0  0  0  0  0  0  0  0
   -2.6025    1.5026    0.0000 C   0  0  0  0  0  0  0  0  0  0  0  0
   -2.6054    2.5026    0.0000 O   0  0  0  0  0  0  0  0  0  0  0  0
   -3.4670    1.0001    0.0000 C   0  0  0  0  0  0  0  0  0  0  0  0
   -6.0615   -2.5063    0.0000 C   0  0  0  0  0  0  0  0  0  0  0  0
   -6.0600   -3.5063    0.0000 C   0  0  0  0  0  0  0  0  0  0  0  0
   -6.9282   -2.0075    0.0000 C   0  0  0  0  0  0  0  0  0  0  0  0
  1  2  1  0  0  0  0
  2  3  1  0  0  0  0
  2  4  1  0  0  0  0
  4  5  1  0  0  0  0
  5  6  1  0  0  0  0
  6  7  1  1  0  0  0
  6  8  1  0  0  0  0
  6  9  1  0  0  0  0
  9 10  1  0  0  0  0
 10 11  1  0  0  0  0
 11 17  2  0  0  0  0
 11 12  1  0  0  0  0
 12 13  2  0  0  0  0
 13 14  1  0  0  0  0
 14 15  1  0  0  0  0
 14 16  2  0  0  0  0
 16 17  1  0  0  0  0
 17 18  1  0  0  0  0
 18 19  2  0  0  0  0
 18 20  1  0  0  0  0
  4 21  1  0  0  0  0
 21 22  1  0  0  0  0
 21 23  1  0  0  0  0
M  END
> <ID>
1591217

$$$$
1591218
  -OEChem-05171416412D

 29 31  0     1  0  0  0  0  0999 V2000
    3.4685    3.0126    0.0000 C   0  0  0  0  0  0  0  0  0  0  0  0
    4.3352    3.5113    0.0000 C   0  0  0  0  0  0  0  0  0  0  0  0
    5.2005    3.0100    0.0000 O   0  0  0  0  0  0  0  0  0  0  0  0
    4.3367    4.5113    0.0000 C   0  0  0  0  0  0  0  0  0  0  0  0
    5.2094    5.0100    0.0000 C   0  0  0  0  0  0  0  0  0  0  0  0
    5.2021    6.0151    0.0000 C   0  0  0  0  0  0  0  0  0  0  0  0
    6.0659    6.5189    0.0000 C   0  0  0  0  0  0  0  0  0  0  0  0
    4.3308    6.5164    0.0000 C   0  0  0  0  0  0  0  0  0  0  0  0
    3.4669    6.0126    0.0000 C   0  0  0  0  0  0  0  0  0  0  0  0
    3.4655    5.0126    0.0000 C   0  0  0  0  0  0  0  0  0  0  0  0
    2.5995    4.5126    0.0000 O   0  0  0  0  0  0  0  0  0  0  0  0
    2.5995    3.5126    0.0000 C   0  0  0  0  0  0  0  0  0  0  0  0
    1.7334    3.0126    0.0000 C   0  0  2  0  0  0  0  0  0  0  0  0
    2.2334    2.1466    0.0000 H   0  0  0  0  0  0  0  0  0  0  0  0
    1.2334    3.8786    0.0000 O   0  0  0  0  0  0  0  0  0  0  0  0
    0.8674    2.5126    0.0000 C   0  0  0  0  0  0  0  0  0  0  0  0
    0.8674    1.5126    0.0000 N   0  0  0  0  0  0  0  0  0  0  0  0
    0.0000    1.0051    0.0000 C   0  0  0  0  0  0  0  0  0  0  0  0
    0.0000    0.0000    0.0000 C   0  0  0  0  0  0  0  0  0  0  0  0
    0.8674   -0.4976    0.0000 N   0  0  0  0  0  0  0  0  0  0  0  0
    1.7348    0.0000    0.0000 C   0  0  0  0  0  0  0  0  0  0  0  0
    1.7348    1.0051    0.0000 C   0  0  0  0  0  0  0  0  0  0  0  0
    0.8674   -1.4976    0.0000 C   0  0  0  0  0  0  0  0  0  0  0  0
    1.7394   -1.9976    0.0000 C   0  0  0  0  0  0  0  0  0  0  0  0
    1.7395   -2.9977    0.0000 C   0  0  0  0  0  0  0  0  0  0  0  0
    0.8763   -3.5027    0.0000 C   0  0  0  0  0  0  0  0  0  0  0  0
    0.8807   -4.5027    0.0000 F   0  0  0  0  0  0  0  0  0  0  0  0
    0.0043   -3.0027    0.0000 C   0  0  0  0  0  0  0  0  0  0  0  0
   -0.0046   -1.9976    0.0000 C   0  0  0  0  0  0  0  0  0  0  0  0
  1  2  1  0  0  0  0
  2  3  2  0  0  0  0
  2  4  1  0  0  0  0
  4 10  2  0  0  0  0
  4  5  1  0  0  0  0
  5  6  2  0  0  0  0
  6  7  1  0  0  0  0
  6  8  1  0  0  0  0
  8  9  2  0  0  0  0
  9 10  1  0  0  0  0
 10 11  1  0  0  0  0
 11 12  1  0  0  0  0
 12 13  1  0  0  0  0
 13 14  1  6  0  0  0
 13 15  1  0  0  0  0
 13 16  1  0  0  0  0
 16 17  1  0  0  0  0
 17 22  1  0  0  0  0
 17 18  1  0  0  0  0
 18 19  1  0  0  0  0
 19 20  1  0  0  0  0
 20 21  1  0  0  0  0
 21 22  1  0  0  0  0
 20 23  1  0  0  0  0
 23 29  2  0  0  0  0
 23 24  1  0  0  0  0
 24 25  2  0  0  0  0
 25 26  1  0  0  0  0
 26 27  1  0  0  0  0
 26 28  2  0  0  0  0
 28 29  1  0  0  0  0
M  END
> <ID>
1591218

$$$$
1591219
  -OEChem-05171416412D

 30 32  0     1  0  0  0  0  0999 V2000
    3.4685    3.0126    0.0000 C   0  0  0  0  0  0  0  0  0  0  0  0
    4.3352    3.5113    0.0000 C   0  0  0  0  0  0  0  0  0  0  0  0
    5.2005    3.0100    0.0000 O   0  0  0  0  0  0  0  0  0  0  0  0
    4.3367    4.5113    0.0000 C   0  0  0  0  0  0  0  0  0  0  0  0
    5.2094    5.0100    0.0000 C   0  0  0  0  0  0  0  0  0  0  0  0
    5.2021    6.0151    0.0000 C   0  0  0  0  0  0  0  0  0  0  0  0
    6.0659    6.5189    0.0000 C   0  0  0  0  0  0  0  0  0  0  0  0
    4.3308    6.5164    0.0000 C   0  0  0  0  0  0  0  0  0  0  0  0
    3.4669    6.0126    0.0000 C   0  0  0  0  0  0  0  0  0  0  0  0
    3.4655    5.0126    0.0000 C   0  0  0  0  0  0  0  0  0  0  0  0
    2.5995    4.5126    0.0000 O   0  0  0  0  0  0  0  0  0  0  0  0
    2.5995    3.5126    0.0000 C   0  0  0  0  0  0  0  0  0  0  0  0
    1.7334    3.0126    0.0000 C   0  0  2  0  0  0  0  0  0  0  0  0
    2.2334    2.1466    0.0000 H   0  0  0  0  0  0  0  0  0  0  0  0
    1.2334    3.8786    0.0000 O   0  0  0  0  0  0  0  0  0  0  0  0
    0.8674    2.5126    0.0000 C   0  0  0  0  0  0  0  0  0  0  0  0
    0.8674    1.5126    0.0000 N   0  0  0  0  0  0  0  0  0  0  0  0
    0.0000    1.0051    0.0000 C   0  0  0  0  0  0  0  0  0  0  0  0
    0.0000    0.0000    0.0000 C   0  0  0  0  0  0  0  0  0  0  0  0
    0.8674   -0.4976    0.0000 N   0  0  0  0  0  0  0  0  0  0  0  0
    1.7348    0.0000    0.0000 C   0  0  0  0  0  0  0  0  0  0  0  0
    1.7348    1.0051    0.0000 C   0  0  0  0  0  0  0  0  0  0  0  0
    0.8674   -1.4976    0.0000 C   0  0  0  0  0  0  0  0  0  0  0  0
   -0.0046   -1.9976    0.0000 C   0  0  0  0  0  0  0  0  0  0  0  0
   -0.0047   -2.9977    0.0000 C   0  0  0  0  0  0  0  0  0  0  0  0
    0.8585   -3.5027    0.0000 C   0  0  0  0  0  0  0  0  0  0  0  0
    1.7305   -3.0027    0.0000 C   0  0  0  0  0  0  0  0  0  0  0  0
    2.5935   -3.5078    0.0000 C   0  0  0  0  0  0  0  0  0  0  0  0
    1.7394   -1.9976    0.0000 C   0  0  0  0  0  0  0  0  0  0  0  0
    2.6069   -1.5002    0.0000 C   0  0  0  0  0  0  0  0  0  0  0  0
  1  2  1  0  0  0  0
  2  3  2  0  0  0  0
  2  4  1  0  0  0  0
  4 10  2  0  0  0  0
  4  5  1  0  0  0  0
  5  6  2  0  0  0  0
  6  7  1  0  0  0  0
  6  8  1  0  0  0  0
  8  9  2  0  0  0  0
  9 10  1  0  0  0  0
 10 11  1  0  0  0  0
 11 12  1  0  0  0  0
 12 13  1  0  0  0  0
 13 14  1  6  0  0  0
 13 15  1  0  0  0  0
 13 16  1  0  0  0  0
 16 17  1  0  0  0  0
 17 22  1  0  0  0  0
 17 18  1  0  0  0  0
 18 19  1  0  0  0  0
 19 20  1  0  0  0  0
 20 21  1  0  0  0  0
 21 22  1  0  0  0  0
 20 23  1  0  0  0  0
 23 29  2  0  0  0  0
 23 24  1  0  0  0  0
 24 25  2  0  0  0  0
 25 26  1  0  0  0  0
 26 27  2  0  0  0  0
 27 28  1  0  0  0  0
 27 29  1  0  0  0  0
 29 30  1  0  0  0  0
M  END
> <ID>
1591219

$$$$
1591220
  -OEChem-05171416412D

 29 31  0     1  0  0  0  0  0999 V2000
    5.1985    7.0167    0.0000 C   0  0  0  0  0  0  0  0  0  0  0  0
    4.3347    6.5129    0.0000 C   0  0  0  0  0  0  0  0  0  0  0  0
    3.4634    7.0142    0.0000 C   0  0  0  0  0  0  0  0  0  0  0  0
    2.5995    6.5104    0.0000 C   0  0  0  0  0  0  0  0  0  0  0  0
    2.5981    5.5104    0.0000 C   0  0  0  0  0  0  0  0  0  0  0  0
    1.7321    5.0104    0.0000 O   0  0  0  0  0  0  0  0  0  0  0  0
    1.7321    4.0104    0.0000 C   0  0  0  0  0  0  0  0  0  0  0  0
    0.8660    3.5104    0.0000 C   0  0  2  0  0  0  0  0  0  0  0  0
    1.3660    2.6444    0.0000 H   0  0  0  0  0  0  0  0  0  0  0  0
    0.3660    4.3764    0.0000 O   0  0  0  0  0  0  0  0  0  0  0  0
   -0.0000    3.0104    0.0000 C   0  0  0  0  0  0  0  0  0  0  0  0
   -0.0000    2.0104    0.0000 N   0  0  0  0  0  0  0  0  0  0  0  0
   -0.8675    1.5027    0.0000 C   0  0  0  0  0  0  0  0  0  0  0  0
   -0.8675    0.4975    0.0000 C   0  0  0  0  0  0  0  0  0  0  0  0
    0.0000    0.0000    0.0000 C   0  0  0  0  0  0  0  0  0  0  0  0
    0.8675    0.4975    0.0000 C   0  0  0  0  0  0  0  0  0  0  0  0
    0.8675    1.5027    0.0000 C   0  0  0  0  0  0  0  0  0  0  0  0
    3.4693    5.0091    0.0000 C   0  0  0  0  0  0  0  0  0  0  0  0
    4.3420    5.5078    0.0000 C   0  0  0  0  0  0  0  0  0  0  0  0
    3.4678    4.0091    0.0000 C   0  0  0  0  0  0  0  0  0  0  0  0
    2.6011    3.5104    0.0000 O   0  0  0  0  0  0  0  0  0  0  0  0
    4.3331    3.5078    0.0000 C   0  0  0  0  0  0  0  0  0  0  0  0
    4.3316    2.5078    0.0000 C   0  0  0  0  0  0  0  0  0  0  0  0
    5.1969    2.0065    0.0000 C   0  0  0  0  0  0  0  0  0  0  0  0
    6.0667    2.5103    0.0000 C   0  0  0  0  0  0  0  0  0  0  0  0
    6.9320    2.0091    0.0000 C   0  0  0  0  0  0  0  0  0  0  0  0
    6.9364    1.0090    0.0000 C   0  0  0  0  0  0  0  0  0  0  0  0
    6.0666    0.5052    0.0000 C   0  0  0  0  0  0  0  0  0  0  0  0
    5.1924    1.0013    0.0000 C   0  0  0  0  0  0  0  0  0  0  0  0
  1  2  1  0  0  0  0
  2 19  2  0  0  0  0
  2  3  1  0  0  0  0
  3  4  2  0  0  0  0
  4  5  1  0  0  0  0
  5  6  1  0  0  0  0
  6  7  1  0  0  0  0
  7  8  1  0  0  0  0
  8  9  1  6  0  0  0
  8 10  1  0  0  0  0
  8 11  1  0  0  0  0
 11 12  1  0  0  0  0
 12 17  1  0  0  0  0
 12 13  1  0  0  0  0
 13 14  1  0  0  0  0
 14 15  1  0  0  0  0
 15 16  1  0  0  0  0
 16 17  1  0  0  0  0
  5 18  2  0  0  0  0
 18 19  1  0  0  0  0
 18 20  1  0  0  0  0
 20 21  2  0  0  0  0
 20 22  1  0  0  0  0
 22 23  1  0  0  0  0
 23 24  1  0  0  0  0
 24 29  2  0  0  0  0
 24 25  1  0  0  0  0
 25 26  2  0  0  0  0
 26 27  1  0  0  0  0
 27 28  2  0  0  0  0
 28 29  1  0  0  0  0
M  END
> <ID>
1591220

$$$$
1591221
  -OEChem-05171416412D

 29 31  0     1  0  0  0  0  0999 V2000
   -4.3310   -5.5038    0.0000 C   0  0  0  0  0  0  0  0  0  0  0  0
   -3.4672   -5.0000    0.0000 C   0  0  0  0  0  0  0  0  0  0  0  0
   -2.5959   -5.5013    0.0000 C   0  0  0  0  0  0  0  0  0  0  0  0
   -1.7320   -4.9975    0.0000 C   0  0  0  0  0  0  0  0  0  0  0  0
   -1.7306   -3.9975    0.0000 C   0  0  0  0  0  0  0  0  0  0  0  0
   -0.8646   -3.4975    0.0000 O   0  0  0  0  0  0  0  0  0  0  0  0
   -0.8646   -2.4975    0.0000 C   0  0  0  0  0  0  0  0  0  0  0  0
    0.0015   -1.9975    0.0000 C   0  0  2  0  0  0  0  0  0  0  0  0
   -0.4985   -1.1315    0.0000 H   0  0  0  0  0  0  0  0  0  0  0  0
    0.5015   -2.8635    0.0000 O   0  0  0  0  0  0  0  0  0  0  0  0
    0.8675   -1.4975    0.0000 C   0  0  0  0  0  0  0  0  0  0  0  0
    0.8675   -0.4975    0.0000 N   0  0  0  0  0  0  0  0  0  0  0  0
    0.0000    0.0000    0.0000 C   0  0  0  0  0  0  0  0  0  0  0  0
   -0.0000    1.0052    0.0000 C   0  0  0  0  0  0  0  0  0  0  0  0
    0.8675    1.5129    0.0000 O   0  0  0  0  0  0  0  0  0  0  0  0
    1.7350    1.0052    0.0000 C   0  0  0  0  0  0  0  0  0  0  0  0
    1.7350    0.0000    0.0000 C   0  0  0  0  0  0  0  0  0  0  0  0
   -2.6018   -3.4962    0.0000 C   0  0  0  0  0  0  0  0  0  0  0  0
   -3.4745   -3.9949    0.0000 C   0  0  0  0  0  0  0  0  0  0  0  0
   -2.6003   -2.4962    0.0000 C   0  0  0  0  0  0  0  0  0  0  0  0
   -1.7336   -1.9975    0.0000 O   0  0  0  0  0  0  0  0  0  0  0  0
   -3.4656   -1.9949    0.0000 C   0  0  0  0  0  0  0  0  0  0  0  0
   -3.4641   -0.9949    0.0000 C   0  0  0  0  0  0  0  0  0  0  0  0
   -4.3294   -0.4936    0.0000 C   0  0  0  0  0  0  0  0  0  0  0  0
   -5.1992   -0.9974    0.0000 C   0  0  0  0  0  0  0  0  0  0  0  0
   -6.0645   -0.4962    0.0000 C   0  0  0  0  0  0  0  0  0  0  0  0
   -6.0689    0.5039    0.0000 C   0  0  0  0  0  0  0  0  0  0  0  0
   -5.1991    1.0077    0.0000 C   0  0  0  0  0  0  0  0  0  0  0  0
   -4.3249    0.5116    0.0000 C   0  0  0  0  0  0  0  0  0  0  0  0
  1  2  1  0  0  0  0
  2 19  2  0  0  0  0
  2  3  1  0  0  0  0
  3  4  2  0  0  0  0
  4  5  1  0  0  0  0
  5  6  1  0  0  0  0
  6  7  1  0  0  0  0
  7  8  1  0  0  0  0
  8  9  1  6  0  0  0
  8 10  1  0  0  0  0
  8 11  1  0  0  0  0
 11 12  1  0  0  0  0
 12 17  1  0  0  0  0
 12 13  1  0  0  0  0
 13 14  1  0  0  0  0
 14 15  1  0  0  0  0
 15 16  1  0  0  0  0
 16 17  1  0  0  0  0
  5 18  2  0  0  0  0
 18 19  1  0  0  0  0
 18 20  1  0  0  0  0
 20 21  2  0  0  0  0
 20 22  1  0  0  0  0
 22 23  1  0  0  0  0
 23 24  1  0  0  0  0
 24 29  2  0  0  0  0
 24 25  1  0  0  0  0
 25 26  2  0  0  0  0
 26 27  1  0  0  0  0
 27 28  2  0  0  0  0
 28 29  1  0  0  0  0
M  END
> <ID>
1591221

$$$$
1591222
  -OEChem-05171416412D

 36 39  0     1  0  0  0  0  0999 V2000
    6.0659    6.5189    0.0000 C   0  0  0  0  0  0  0  0  0  0  0  0
    5.2021    6.0151    0.0000 C   0  0  0  0  0  0  0  0  0  0  0  0
    4.3308    6.5164    0.0000 C   0  0  0  0  0  0  0  0  0  0  0  0
    3.4669    6.0126    0.0000 C   0  0  0  0  0  0  0  0  0  0  0  0
    3.4655    5.0126    0.0000 C   0  0  0  0  0  0  0  0  0  0  0  0
    2.5995    4.5126    0.0000 O   0  0  0  0  0  0  0  0  0  0  0  0
    2.5995    3.5126    0.0000 C   0  0  0  0  0  0  0  0  0  0  0  0
    1.7334    3.0126    0.0000 C   0  0  2  0  0  0  0  0  0  0  0  0
    2.2334    2.1466    0.0000 H   0  0  0  0  0  0  0  0  0  0  0  0
    1.2334    3.8786    0.0000 O   0  0  0  0  0  0  0  0  0  0  0  0
    0.8674    2.5126    0.0000 C   0  0  0  0  0  0  0  0  0  0  0  0
    0.8674    1.5126    0.0000 N   0  0  0  0  0  0  0  0  0  0  0  0
    0.0000    1.0051    0.0000 C   0  0  0  0  0  0  0  0  0  0  0  0
    0.0000    0.0000    0.0000 C   0  0  0  0  0  0  0  0  0  0  0  0
    0.8674   -0.4976    0.0000 N   0  0  0  0  0  0  0  0  0  0  0  0
    1.7348    0.0000    0.0000 C   0  0  0  0  0  0  0  0  0  0  0  0
    1.7348    1.0051    0.0000 C   0  0  0  0  0  0  0  0  0  0  0  0
    0.8674   -1.4976    0.0000 C   0  0  0  0  0  0  0  0  0  0  0  0
    1.7394   -1.9976    0.0000 C   0  0  0  0  0  0  0  0  0  0  0  0
    1.7395   -2.9977    0.0000 C   0  0  0  0  0  0  0  0  0  0  0  0
    0.8763   -3.5027    0.0000 C   0  0  0  0  0  0  0  0  0  0  0  0
    0.8807   -4.5027    0.0000 F   0  0  0  0  0  0  0  0  0  0  0  0
    0.0043   -3.0027    0.0000 C   0  0  0  0  0  0  0  0  0  0  0  0
   -0.0046   -1.9976    0.0000 C   0  0  0  0  0  0  0  0  0  0  0  0
    4.3367    4.5113    0.0000 C   0  0  0  0  0  0  0  0  0  0  0  0
    5.2094    5.0100    0.0000 C   0  0  0  0  0  0  0  0  0  0  0  0
    4.3352    3.5113    0.0000 C   0  0  0  0  0  0  0  0  0  0  0  0
    3.4685    3.0126    0.0000 O   0  0  0  0  0  0  0  0  0  0  0  0
    5.2005    3.0100    0.0000 C   0  0  0  0  0  0  0  0  0  0  0  0
    5.1990    2.0100    0.0000 C   0  0  0  0  0  0  0  0  0  0  0  0
    6.0643    1.5087    0.0000 C   0  0  0  0  0  0  0  0  0  0  0  0
    6.9341    2.0125    0.0000 C   0  0  0  0  0  0  0  0  0  0  0  0
    7.7994    1.5113    0.0000 C   0  0  0  0  0  0  0  0  0  0  0  0
    7.8038    0.5112    0.0000 C   0  0  0  0  0  0  0  0  0  0  0  0
    6.9340    0.0074    0.0000 C   0  0  0  0  0  0  0  0  0  0  0  0
    6.0598    0.5035    0.0000 C   0  0  0  0  0  0  0  0  0  0  0  0
  1  2  1  0  0  0  0
  2 26  2  0  0  0  0
  2  3  1  0  0  0  0
  3  4  2  0  0  0  0
  4  5  1  0  0  0  0
  5  6  1  0  0  0  0
  6  7  1  0  0  0  0
  7  8  1  0  0  0  0
  8  9  1  6  0  0  0
  8 10  1  0  0  0  0
  8 11  1  0  0  0  0
 11 12  1  0  0  0  0
 12 17  1  0  0  0  0
 12 13  1  0  0  0  0
 13 14  1  0  0  0  0
 14 15  1  0  0  0  0
 15 16  1  0  0  0  0
 16 17  1  0  0  0  0
 15 18  1  0  0  0  0
 18 24  2  0  0  0  0
 18 19  1  0  0  0  0
 19 20  2  0  0  0  0
 20 21  1  0  0  0  0
 21 22  1  0  0  0  0
 21 23  2  0  0  0  0
 23 24  1  0  0  0  0
  5 25  2  0  0  0  0
 25 26  1  0  0  0  0
 25 27  1  0  0  0  0
 27 28  2  0  0  0  0
 27 29  1  0  0  0  0
 29 30  1  0  0  0  0
 30 31  1  0  0  0  0
 31 36  2  0  0  0  0
 31 32  1  0  0  0  0
 32 33  2  0  0  0  0
 33 34  1  0  0  0  0
 34 35  2  0  0  0  0
 35 36  1  0  0  0  0
M  END
> <ID>
1591222

$$$$
1591223
  -OEChem-05171416412D

 37 40  0     1  0  0  0  0  0999 V2000
    6.0659    6.5189    0.0000 C   0  0  0  0  0  0  0  0  0  0  0  0
    5.2021    6.0151    0.0000 C   0  0  0  0  0  0  0  0  0  0  0  0
    4.3308    6.5164    0.0000 C   0  0  0  0  0  0  0  0  0  0  0  0
    3.4669    6.0126    0.0000 C   0  0  0  0  0  0  0  0  0  0  0  0
    3.4655    5.0126    0.0000 C   0  0  0  0  0  0  0  0  0  0  0  0
    2.5995    4.5126    0.0000 O   0  0  0  0  0  0  0  0  0  0  0  0
    2.5995    3.5126    0.0000 C   0  0  0  0  0  0  0  0  0  0  0  0
    1.7334    3.0126    0.0000 C   0  0  2  0  0  0  0  0  0  0  0  0
    2.2334    2.1466    0.0000 H   0  0  0  0  0  0  0  0  0  0  0  0
    1.2334    3.8786    0.0000 O   0  0  0  0  0  0  0  0  0  0  0  0
    0.8674    2.5126    0.0000 C   0  0  0  0  0  0  0  0  0  0  0  0
    0.8674    1.5126    0.0000 N   0  0  0  0  0  0  0  0  0  0  0  0
    0.0000    1.0051    0.0000 C   0  0  0  0  0  0  0  0  0  0  0  0
    0.0000    0.0000    0.0000 C   0  0  0  0  0  0  0  0  0  0  0  0
    0.8674   -0.4976    0.0000 N   0  0  0  0  0  0  0  0  0  0  0  0
    1.7348    0.0000    0.0000 C   0  0  0  0  0  0  0  0  0  0  0  0
    1.7348    1.0051    0.0000 C   0  0  0  0  0  0  0  0  0  0  0  0
    0.8674   -1.4976    0.0000 C   0  0  0  0  0  0  0  0  0  0  0  0
   -0.0046   -1.9976    0.0000 C   0  0  0  0  0  0  0  0  0  0  0  0
   -0.0047   -2.9977    0.0000 C   0  0  0  0  0  0  0  0  0  0  0  0
    0.8585   -3.5027    0.0000 C   0  0  0  0  0  0  0  0  0  0  0  0
    1.7305   -3.0027    0.0000 C   0  0  0  0  0  0  0  0  0  0  0  0
    2.5935   -3.5078    0.0000 C   0  0  0  0  0  0  0  0  0  0  0  0
    1.7394   -1.9976    0.0000 C   0  0  0  0  0  0  0  0  0  0  0  0
    2.6069   -1.5002    0.0000 C   0  0  0  0  0  0  0  0  0  0  0  0
    4.3367    4.5113    0.0000 C   0  0  0  0  0  0  0  0  0  0  0  0
    5.2094    5.0100    0.0000 C   0  0  0  0  0  0  0  0  0  0  0  0
    4.3352    3.5113    0.0000 C   0  0  0  0  0  0  0  0  0  0  0  0
    3.4685    3.0126    0.0000 O   0  0  0  0  0  0  0  0  0  0  0  0
    5.2005    3.0100    0.0000 C   0  0  0  0  0  0  0  0  0  0  0  0
    5.1990    2.0100    0.0000 C   0  0  0  0  0  0  0  0  0  0  0  0
    6.0643    1.5087    0.0000 C   0  0  0  0  0  0  0  0  0  0  0  0
    6.9341    2.0125    0.0000 C   0  0  0  0  0  0  0  0  0  0  0  0
    7.7994    1.5113    0.0000 C   0  0  0  0  0  0  0  0  0  0  0  0
    7.8038    0.5112    0.0000 C   0  0  0  0  0  0  0  0  0  0  0  0
    6.9340    0.0074    0.0000 C   0  0  0  0  0  0  0  0  0  0  0  0
    6.0598    0.5035    0.0000 C   0  0  0  0  0  0  0  0  0  0  0  0
  1  2  1  0  0  0  0
  2 27  2  0  0  0  0
  2  3  1  0  0  0  0
  3  4  2  0  0  0  0
  4  5  1  0  0  0  0
  5  6  1  0  0  0  0
  6  7  1  0  0  0  0
  7  8  1  0  0  0  0
  8  9  1  6  0  0  0
  8 10  1  0  0  0  0
  8 11  1  0  0  0  0
 11 12  1  0  0  0  0
 12 17  1  0  0  0  0
 12 13  1  0  0  0  0
 13 14  1  0  0  0  0
 14 15  1  0  0  0  0
 15 16  1  0  0  0  0
 16 17  1  0  0  0  0
 15 18  1  0  0  0  0
 18 24  2  0  0  0  0
 18 19  1  0  0  0  0
 19 20  2  0  0  0  0
 20 21  1  0  0  0  0
 21 22  2  0  0  0  0
 22 23  1  0  0  0  0
 22 24  1  0  0  0  0
 24 25  1  0  0  0  0
  5 26  2  0  0  0  0
 26 27  1  0  0  0  0
 26 28  1  0  0  0  0
 28 29  2  0  0  0  0
 28 30  1  0  0  0  0
 30 31  1  0  0  0  0
 31 32  1  0  0  0  0
 32 37  2  0  0  0  0
 32 33  1  0  0  0  0
 33 34  2  0  0  0  0
 34 35  1  0  0  0  0
 35 36  2  0  0  0  0
 36 37  1  0  0  0  0
M  END
> <ID>
1591223

$$$$
1591224
  -OEChem-05171416412D

 36 39  0     1  0  0  0  0  0999 V2000
    0.0057    7.0177    0.0000 C   0  0  0  0  0  0  0  0  0  0  0  0
    0.0013    6.0178    0.0000 C   0  0  0  0  0  0  0  0  0  0  0  0
    0.8711    5.5139    0.0000 C   0  0  0  0  0  0  0  0  0  0  0  0
    0.8667    4.5139    0.0000 C   0  0  0  0  0  0  0  0  0  0  0  0
    0.0014    4.0126    0.0000 C   0  0  0  0  0  0  0  0  0  0  0  0
    0.0014    3.0126    0.0000 N   0  0  0  0  0  0  0  0  0  0  0  0
    0.8674    2.5126    0.0000 C   0  0  0  0  0  0  0  0  0  0  0  0
    1.7334    3.0126    0.0000 S   0  0  0  0  0  0  0  0  0  0  0  0
    0.8674    1.5126    0.0000 N   0  0  0  0  0  0  0  0  0  0  0  0
    0.0000    1.0051    0.0000 C   0  0  0  0  0  0  0  0  0  0  0  0
    0.0000    0.0000    0.0000 C   0  0  0  0  0  0  0  0  0  0  0  0
    0.8674   -0.4976    0.0000 N   0  0  0  0  0  0  0  0  0  0  0  0
    0.8674   -1.4976    0.0000 C   0  0  0  0  0  0  0  0  0  0  0  0
    1.7334   -1.9976    0.0000 C   0  0  1  0  0  0  0  0  0  0  0  0
    2.2334   -1.1316    0.0000 H   0  0  0  0  0  0  0  0  0  0  0  0
    1.2334   -2.8636    0.0000 O   0  0  0  0  0  0  0  0  0  0  0  0
    2.5995   -2.4976    0.0000 C   0  0  0  0  0  0  0  0  0  0  0  0
    3.4655   -1.9976    0.0000 O   0  0  0  0  0  0  0  0  0  0  0  0
    4.3315   -2.4976    0.0000 C   0  0  0  0  0  0  0  0  0  0  0  0
    5.1983   -1.9988    0.0000 C   0  0  0  0  0  0  0  0  0  0  0  0
    6.0665   -2.4951    0.0000 C   0  0  0  0  0  0  0  0  0  0  0  0
    6.0680   -3.5003    0.0000 C   0  0  0  0  0  0  0  0  0  0  0  0
    5.2012   -4.0092    0.0000 C   0  0  0  0  0  0  0  0  0  0  0  0
    4.3330   -3.5028    0.0000 C   0  0  0  0  0  0  0  0  0  0  0  0
    3.4662   -4.0015    0.0000 C   0  0  0  0  0  0  0  0  0  0  0  0
    2.6009   -3.5002    0.0000 O   0  0  0  0  0  0  0  0  0  0  0  0
    3.4647   -5.0015    0.0000 C   0  0  0  0  0  0  0  0  0  0  0  0
    4.3359   -5.5028    0.0000 C   0  0  0  0  0  0  0  0  0  0  0  0
    4.3345   -6.5029    0.0000 C   0  0  0  0  0  0  0  0  0  0  0  0
    3.4706   -7.0066    0.0000 C   0  0  0  0  0  0  0  0  0  0  0  0
    2.5994   -6.5053    0.0000 C   0  0  0  0  0  0  0  0  0  0  0  0
    2.5920   -5.5002    0.0000 C   0  0  0  0  0  0  0  0  0  0  0  0
    1.7348    0.0000    0.0000 C   0  0  0  0  0  0  0  0  0  0  0  0
    1.7348    1.0051    0.0000 C   0  0  0  0  0  0  0  0  0  0  0  0
   -0.8684    4.5165    0.0000 C   0  0  0  0  0  0  0  0  0  0  0  0
   -0.8729    5.5216    0.0000 C   0  0  0  0  0  0  0  0  0  0  0  0
  1  2  1  0  0  0  0
  2 36  2  0  0  0  0
  2  3  1  0  0  0  0
  3  4  2  0  0  0  0
  4  5  1  0  0  0  0
  5  6  1  0  0  0  0
  6  7  1  0  0  0  0
  7  8  2  0  0  0  0
  7  9  1  0  0  0  0
  9 34  1  0  0  0  0
  9 10  1  0  0  0  0
 10 11  1  0  0  0  0
 11 12  1  0  0  0  0
 12 13  1  0  0  0  0
 13 14  1  0  0  0  0
 14 15  1  1  0  0  0
 14 16  1  0  0  0  0
 14 17  1  0  0  0  0
 17 18  1  0  0  0  0
 18 19  1  0  0  0  0
 19 24  2  0  0  0  0
 19 20  1  0  0  0  0
 20 21  2  0  0  0  0
 21 22  1  0  0  0  0
 22 23  2  0  0  0  0
 23 24  1  0  0  0  0
 24 25  1  0  0  0  0
 25 26  2  0  0  0  0
 25 27  1  0  0  0  0
 27 32  2  0  0  0  0
 27 28  1  0  0  0  0
 28 29  2  0  0  0  0
 29 30  1  0  0  0  0
 30 31  2  0  0  0  0
 31 32  1  0  0  0  0
 12 33  1  0  0  0  0
 33 34  1  0  0  0  0
  5 35  2  0  0  0  0
 35 36  1  0  0  0  0
M  END
> <ID>
1591224

$$$$
1591225
  -OEChem-05171416412D

 36 39  0     1  0  0  0  0  0999 V2000
    0.0057    7.0177    0.0000 C   0  0  0  0  0  0  0  0  0  0  0  0
    0.0013    6.0178    0.0000 C   0  0  0  0  0  0  0  0  0  0  0  0
    0.8711    5.5139    0.0000 C   0  0  0  0  0  0  0  0  0  0  0  0
    0.8667    4.5139    0.0000 C   0  0  0  0  0  0  0  0  0  0  0  0
    0.0014    4.0126    0.0000 C   0  0  0  0  0  0  0  0  0  0  0  0
    0.0014    3.0126    0.0000 N   0  0  0  0  0  0  0  0  0  0  0  0
    0.8674    2.5126    0.0000 C   0  0  0  0  0  0  0  0  0  0  0  0
    1.7334    3.0126    0.0000 O   0  0  0  0  0  0  0  0  0  0  0  0
    0.8674    1.5126    0.0000 N   0  0  0  0  0  0  0  0  0  0  0  0
    0.0000    1.0051    0.0000 C   0  0  0  0  0  0  0  0  0  0  0  0
    0.0000    0.0000    0.0000 C   0  0  0  0  0  0  0  0  0  0  0  0
    0.8674   -0.4976    0.0000 N   0  0  0  0  0  0  0  0  0  0  0  0
    0.8674   -1.4976    0.0000 C   0  0  0  0  0  0  0  0  0  0  0  0
    1.7334   -1.9976    0.0000 C   0  0  1  0  0  0  0  0  0  0  0  0
    2.2334   -1.1316    0.0000 H   0  0  0  0  0  0  0  0  0  0  0  0
    1.2334   -2.8636    0.0000 O   0  0  0  0  0  0  0  0  0  0  0  0
    2.5995   -2.4976    0.0000 C   0  0  0  0  0  0  0  0  0  0  0  0
    3.4655   -1.9976    0.0000 O   0  0  0  0  0  0  0  0  0  0  0  0
    4.3315   -2.4976    0.0000 C   0  0  0  0  0  0  0  0  0  0  0  0
    5.1983   -1.9988    0.0000 C   0  0  0  0  0  0  0  0  0  0  0  0
    6.0665   -2.4951    0.0000 C   0  0  0  0  0  0  0  0  0  0  0  0
    6.0680   -3.5003    0.0000 C   0  0  0  0  0  0  0  0  0  0  0  0
    5.2012   -4.0092    0.0000 C   0  0  0  0  0  0  0  0  0  0  0  0
    4.3330   -3.5028    0.0000 C   0  0  0  0  0  0  0  0  0  0  0  0
    3.4662   -4.0015    0.0000 C   0  0  0  0  0  0  0  0  0  0  0  0
    2.6009   -3.5002    0.0000 O   0  0  0  0  0  0  0  0  0  0  0  0
    3.4647   -5.0015    0.0000 C   0  0  0  0  0  0  0  0  0  0  0  0
    4.3359   -5.5028    0.0000 C   0  0  0  0  0  0  0  0  0  0  0  0
    4.3345   -6.5029    0.0000 C   0  0  0  0  0  0  0  0  0  0  0  0
    3.4706   -7.0066    0.0000 C   0  0  0  0  0  0  0  0  0  0  0  0
    2.5994   -6.5053    0.0000 C   0  0  0  0  0  0  0  0  0  0  0  0
    2.5920   -5.5002    0.0000 C   0  0  0  0  0  0  0  0  0  0  0  0
    1.7348    0.0000    0.0000 C   0  0  0  0  0  0  0  0  0  0  0  0
    1.7348    1.0051    0.0000 C   0  0  0  0  0  0  0  0  0  0  0  0
   -0.8684    4.5165    0.0000 C   0  0  0  0  0  0  0  0  0  0  0  0
   -0.8729    5.5216    0.0000 C   0  0  0  0  0  0  0  0  0  0  0  0
  1  2  1  0  0  0  0
  2 36  2  0  0  0  0
  2  3  1  0  0  0  0
  3  4  2  0  0  0  0
  4  5  1  0  0  0  0
  5  6  1  0  0  0  0
  6  7  1  0  0  0  0
  7  8  2  0  0  0  0
  7  9  1  0  0  0  0
  9 34  1  0  0  0  0
  9 10  1  0  0  0  0
 10 11  1  0  0  0  0
 11 12  1  0  0  0  0
 12 13  1  0  0  0  0
 13 14  1  0  0  0  0
 14 15  1  1  0  0  0
 14 16  1  0  0  0  0
 14 17  1  0  0  0  0
 17 18  1  0  0  0  0
 18 19  1  0  0  0  0
 19 24  2  0  0  0  0
 19 20  1  0  0  0  0
 20 21  2  0  0  0  0
 21 22  1  0  0  0  0
 22 23  2  0  0  0  0
 23 24  1  0  0  0  0
 24 25  1  0  0  0  0
 25 26  2  0  0  0  0
 25 27  1  0  0  0  0
 27 32  2  0  0  0  0
 27 28  1  0  0  0  0
 28 29  2  0  0  0  0
 29 30  1  0  0  0  0
 30 31  2  0  0  0  0
 31 32  1  0  0  0  0
 12 33  1  0  0  0  0
 33 34  1  0  0  0  0
  5 35  2  0  0  0  0
 35 36  1  0  0  0  0
M  END
> <ID>
1591225

$$$$
1591226
  -OEChem-05171416412D

 46 50  0     1  0  0  0  0  0999 V2000
    1.2334    3.8786    0.0000 O   0  0  0  0  0  0  0  0  0  0  0  0
    1.7334    3.0126    0.0000 C   0  0  2  0  0  0  0  0  0  0  0  0
    2.2334    2.1466    0.0000 H   0  0  0  0  0  0  0  0  0  0  0  0
    2.5995    3.5126    0.0000 C   0  0  0  0  0  0  0  0  0  0  0  0
    2.5995    4.5126    0.0000 O   0  0  0  0  0  0  0  0  0  0  0  0
    3.4655    5.0126    0.0000 C   0  0  0  0  0  0  0  0  0  0  0  0
    3.4669    6.0126    0.0000 C   0  0  0  0  0  0  0  0  0  0  0  0
    4.3308    6.5164    0.0000 C   0  0  0  0  0  0  0  0  0  0  0  0
    5.2021    6.0151    0.0000 C   0  0  0  0  0  0  0  0  0  0  0  0
    5.2094    5.0100    0.0000 C   0  0  0  0  0  0  0  0  0  0  0  0
    4.3367    4.5113    0.0000 C   0  0  0  0  0  0  0  0  0  0  0  0
    4.3352    3.5113    0.0000 C   0  0  0  0  0  0  0  0  0  0  0  0
    3.4685    3.0126    0.0000 O   0  0  0  0  0  0  0  0  0  0  0  0
    5.2005    3.0100    0.0000 C   0  0  0  0  0  0  0  0  0  0  0  0
    6.0703    3.5138    0.0000 C   0  0  0  0  0  0  0  0  0  0  0  0
    6.9356    3.0126    0.0000 C   0  0  0  0  0  0  0  0  0  0  0  0
    6.9400    2.0125    0.0000 C   0  0  0  0  0  0  0  0  0  0  0  0
    6.0702    1.5087    0.0000 C   0  0  0  0  0  0  0  0  0  0  0  0
    5.1960    2.0048    0.0000 C   0  0  0  0  0  0  0  0  0  0  0  0
    0.8674    2.5126    0.0000 C   0  0  0  0  0  0  0  0  0  0  0  0
    0.8674    1.5126    0.0000 N   0  0  0  0  0  0  0  0  0  0  0  0
    0.0000    1.0051    0.0000 C   0  0  0  0  0  0  0  0  0  0  0  0
    0.0000    0.0000    0.0000 C   0  0  0  0  0  0  0  0  0  0  0  0
    0.8674   -0.4976    0.0000 N   0  0  0  0  0  0  0  0  0  0  0  0
    0.8674   -1.4976    0.0000 C   0  0  0  0  0  0  0  0  0  0  0  0
    1.7334   -1.9976    0.0000 C   0  0  1  0  0  0  0  0  0  0  0  0
    2.2334   -1.1316    0.0000 H   0  0  0  0  0  0  0  0  0  0  0  0
    1.2334   -2.8636    0.0000 O   0  0  0  0  0  0  0  0  0  0  0  0
    2.5995   -2.4976    0.0000 C   0  0  0  0  0  0  0  0  0  0  0  0
    3.4655   -1.9976    0.0000 O   0  0  0  0  0  0  0  0  0  0  0  0
    4.3315   -2.4976    0.0000 C   0  0  0  0  0  0  0  0  0  0  0  0
    5.1983   -1.9988    0.0000 C   0  0  0  0  0  0  0  0  0  0  0  0
    6.0665   -2.4951    0.0000 C   0  0  0  0  0  0  0  0  0  0  0  0
    6.0680   -3.5003    0.0000 C   0  0  0  0  0  0  0  0  0  0  0  0
    5.2012   -4.0092    0.0000 C   0  0  0  0  0  0  0  0  0  0  0  0
    4.3330   -3.5028    0.0000 C   0  0  0  0  0  0  0  0  0  0  0  0
    3.4662   -4.0015    0.0000 C   0  0  0  0  0  0  0  0  0  0  0  0
    2.6009   -3.5002    0.0000 O   0  0  0  0  0  0  0  0  0  0  0  0
    3.4647   -5.0015    0.0000 C   0  0  0  0  0  0  0  0  0  0  0  0
    4.3359   -5.5028    0.0000 C   0  0  0  0  0  0  0  0  0  0  0  0
    4.3345   -6.5029    0.0000 C   0  0  0  0  0  0  0  0  0  0  0  0
    3.4706   -7.0066    0.0000 C   0  0  0  0  0  0  0  0  0  0  0  0
    2.5994   -6.5053    0.0000 C   0  0  0  0  0  0  0  0  0  0  0  0
    2.5920   -5.5002    0.0000 C   0  0  0  0  0  0  0  0  0  0  0  0
    1.7348    0.0000    0.0000 C   0  0  0  0  0  0  0  0  0  0  0  0
    1.7348    1.0051    0.0000 C   0  0  0  0  0  0  0  0  0  0  0  0
  1  2  1  0  0  0  0
  2  3  1  1  0  0  0
  2  4  1  0  0  0  0
  4  5  1  0  0  0  0
  5  6  1  0  0  0  0
  6 11  2  0  0  0  0
  6  7  1  0  0  0  0
  7  8  2  0  0  0  0
  8  9  1  0  0  0  0
  9 10  2  0  0  0  0
 10 11  1  0  0  0  0
 11 12  1  0  0  0  0
 12 13  2  0  0  0  0
 12 14  1  0  0  0  0
 14 19  2  0  0  0  0
 14 15  1  0  0  0  0
 15 16  2  0  0  0  0
 16 17  1  0  0  0  0
 17 18  2  0  0  0  0
 18 19  1  0  0  0  0
  2 20  1  0  0  0  0
 20 21  1  0  0  0  0
 21 46  1  0  0  0  0
 21 22  1  0  0  0  0
 22 23  1  0  0  0  0
 23 24  1  0  0  0  0
 24 25  1  0  0  0  0
 25 26  1  0  0  0  0
 26 27  1  1  0  0  0
 26 28  1  0  0  0  0
 26 29  1  0  0  0  0
 29 30  1  0  0  0  0
 30 31  1  0  0  0  0
 31 36  2  0  0  0  0
 31 32  1  0  0  0  0
 32 33  2  0  0  0  0
 33 34  1  0  0  0  0
 34 35  2  0  0  0  0
 35 36  1  0  0  0  0
 36 37  1  0  0  0  0
 37 38  2  0  0  0  0
 37 39  1  0  0  0  0
 39 44  2  0  0  0  0
 39 40  1  0  0  0  0
 40 41  2  0  0  0  0
 41 42  1  0  0  0  0
 42 43  2  0  0  0  0
 43 44  1  0  0  0  0
 24 45  1  0  0  0  0
 45 46  1  0  0  0  0
M  END
> <ID>
1591226

$$$$
1591227
  -OEChem-05171416412D

 42 45  0     1  0  0  0  0  0999 V2000
    3.4685    3.0126    0.0000 C   0  0  0  0  0  0  0  0  0  0  0  0
    4.3352    3.5113    0.0000 C   0  0  0  0  0  0  0  0  0  0  0  0
    5.2005    3.0100    0.0000 O   0  0  0  0  0  0  0  0  0  0  0  0
    4.3367    4.5113    0.0000 C   0  0  0  0  0  0  0  0  0  0  0  0
    5.2094    5.0100    0.0000 C   0  0  0  0  0  0  0  0  0  0  0  0
    5.2021    6.0151    0.0000 C   0  0  0  0  0  0  0  0  0  0  0  0
    6.0659    6.5189    0.0000 C   0  0  0  0  0  0  0  0  0  0  0  0
    4.3308    6.5164    0.0000 C   0  0  0  0  0  0  0  0  0  0  0  0
    3.4669    6.0126    0.0000 C   0  0  0  0  0  0  0  0  0  0  0  0
    3.4655    5.0126    0.0000 C   0  0  0  0  0  0  0  0  0  0  0  0
    2.5995    4.5126    0.0000 O   0  0  0  0  0  0  0  0  0  0  0  0
    2.5995    3.5126    0.0000 C   0  0  0  0  0  0  0  0  0  0  0  0
    1.7334    3.0126    0.0000 C   0  0  2  0  0  0  0  0  0  0  0  0
    2.2334    2.1466    0.0000 H   0  0  0  0  0  0  0  0  0  0  0  0
    1.2334    3.8786    0.0000 O   0  0  0  0  0  0  0  0  0  0  0  0
    0.8674    2.5126    0.0000 C   0  0  0  0  0  0  0  0  0  0  0  0
    0.8674    1.5126    0.0000 N   0  0  0  0  0  0  0  0  0  0  0  0
    0.0000    1.0051    0.0000 C   0  0  0  0  0  0  0  0  0  0  0  0
    0.0000    0.0000    0.0000 C   0  0  0  0  0  0  0  0  0  0  0  0
    0.8674   -0.4976    0.0000 N   0  0  0  0  0  0  0  0  0  0  0  0
    0.8674   -1.4976    0.0000 C   0  0  0  0  0  0  0  0  0  0  0  0
    1.7334   -1.9976    0.0000 C   0  0  2  0  0  0  0  0  0  0  0  0
    2.2334   -1.1316    0.0000 H   0  0  0  0  0  0  0  0  0  0  0  0
    1.2334   -2.8636    0.0000 O   0  0  0  0  0  0  0  0  0  0  0  0
    2.5995   -2.4976    0.0000 C   0  0  0  0  0  0  0  0  0  0  0  0
    3.4655   -1.9976    0.0000 O   0  0  0  0  0  0  0  0  0  0  0  0
    4.3315   -2.4976    0.0000 C   0  0  0  0  0  0  0  0  0  0  0  0
    5.1983   -1.9988    0.0000 C   0  0  0  0  0  0  0  0  0  0  0  0
    6.0665   -2.4951    0.0000 C   0  0  0  0  0  0  0  0  0  0  0  0
    6.0680   -3.5003    0.0000 C   0  0  0  0  0  0  0  0  0  0  0  0
    5.2012   -4.0092    0.0000 C   0  0  0  0  0  0  0  0  0  0  0  0
    4.3330   -3.5028    0.0000 C   0  0  0  0  0  0  0  0  0  0  0  0
    3.4662   -4.0015    0.0000 C   0  0  0  0  0  0  0  0  0  0  0  0
    2.6009   -3.5002    0.0000 O   0  0  0  0  0  0  0  0  0  0  0  0
    3.4647   -5.0015    0.0000 C   0  0  0  0  0  0  0  0  0  0  0  0
    4.3359   -5.5028    0.0000 C   0  0  0  0  0  0  0  0  0  0  0  0
    4.3345   -6.5029    0.0000 C   0  0  0  0  0  0  0  0  0  0  0  0
    3.4706   -7.0066    0.0000 C   0  0  0  0  0  0  0  0  0  0  0  0
    2.5994   -6.5053    0.0000 C   0  0  0  0  0  0  0  0  0  0  0  0
    2.5920   -5.5002    0.0000 C   0  0  0  0  0  0  0  0  0  0  0  0
    1.7348    0.0000    0.0000 C   0  0  0  0  0  0  0  0  0  0  0  0
    1.7348    1.0051    0.0000 C   0  0  0  0  0  0  0  0  0  0  0  0
  1  2  1  0  0  0  0
  2  3  2  0  0  0  0
  2  4  1  0  0  0  0
  4 10  2  0  0  0  0
  4  5  1  0  0  0  0
  5  6  2  0  0  0  0
  6  7  1  0  0  0  0
  6  8  1  0  0  0  0
  8  9  2  0  0  0  0
  9 10  1  0  0  0  0
 10 11  1  0  0  0  0
 11 12  1  0  0  0  0
 12 13  1  0  0  0  0
 13 14  1  6  0  0  0
 13 15  1  0  0  0  0
 13 16  1  0  0  0  0
 16 17  1  0  0  0  0
 17 42  1  0  0  0  0
 17 18  1  0  0  0  0
 18 19  1  0  0  0  0
 19 20  1  0  0  0  0
 20 21  1  0  0  0  0
 21 22  1  0  0  0  0
 22 23  1  6  0  0  0
 22 24  1  0  0  0  0
 22 25  1  0  0  0  0
 25 26  1  0  0  0  0
 26 27  1  0  0  0  0
 27 32  2  0  0  0  0
 27 28  1  0  0  0  0
 28 29  2  0  0  0  0
 29 30  1  0  0  0  0
 30 31  2  0  0  0  0
 31 32  1  0  0  0  0
 32 33  1  0  0  0  0
 33 34  2  0  0  0  0
 33 35  1  0  0  0  0
 35 40  2  0  0  0  0
 35 36  1  0  0  0  0
 36 37  2  0  0  0  0
 37 38  1  0  0  0  0
 38 39  2  0  0  0  0
 39 40  1  0  0  0  0
 20 41  1  0  0  0  0
 41 42  1  0  0  0  0
M  END
> <ID>
1591227

$$$$
1591228
  -OEChem-05171416412D

 30 32  0     1  0  0  0  0  0999 V2000
    1.7399    6.0139    0.0000 C   0  0  0  0  0  0  0  0  0  0  0  0
    0.8717    5.5177    0.0000 O   0  0  0  0  0  0  0  0  0  0  0  0
    0.8673    4.5178    0.0000 C   0  0  0  0  0  0  0  0  0  0  0  0
    1.7371    4.0139    0.0000 C   0  0  0  0  0  0  0  0  0  0  0  0
    1.7327    3.0139    0.0000 C   0  0  0  0  0  0  0  0  0  0  0  0
    0.8674    2.5126    0.0000 C   0  0  0  0  0  0  0  0  0  0  0  0
   -0.0024    3.0165    0.0000 C   0  0  0  0  0  0  0  0  0  0  0  0
   -0.0069    4.0216    0.0000 C   0  0  0  0  0  0  0  0  0  0  0  0
    0.8674    1.5126    0.0000 N   0  0  0  0  0  0  0  0  0  0  0  0
    0.0000    1.0051    0.0000 C   0  0  0  0  0  0  0  0  0  0  0  0
    0.0000    0.0000    0.0000 C   0  0  0  0  0  0  0  0  0  0  0  0
    0.8674   -0.4976    0.0000 N   0  0  0  0  0  0  0  0  0  0  0  0
    0.8674   -1.4976    0.0000 C   0  0  0  0  0  0  0  0  0  0  0  0
    1.7334   -1.9976    0.0000 C   0  0  1  0  0  0  0  0  0  0  0  0
    2.2334   -1.1316    0.0000 H   0  0  0  0  0  0  0  0  0  0  0  0
    1.2334   -2.8636    0.0000 O   0  0  0  0  0  0  0  0  0  0  0  0
    2.5995   -2.4976    0.0000 C   0  0  0  0  0  0  0  0  0  0  0  0
    3.4655   -1.9976    0.0000 O   0  0  0  0  0  0  0  0  0  0  0  0
    4.3315   -2.4976    0.0000 C   0  0  0  0  0  0  0  0  0  0  0  0
    4.3330   -3.4976    0.0000 C   0  0  0  0  0  0  0  0  0  0  0  0
    5.1968   -4.0014    0.0000 C   0  0  0  0  0  0  0  0  0  0  0  0
    6.0681   -3.5001    0.0000 C   0  0  0  0  0  0  0  0  0  0  0  0
    6.9319   -4.0039    0.0000 C   0  0  0  0  0  0  0  0  0  0  0  0
    6.0755   -2.4950    0.0000 C   0  0  0  0  0  0  0  0  0  0  0  0
    5.2028   -1.9963    0.0000 C   0  0  0  0  0  0  0  0  0  0  0  0
    5.2013   -0.9963    0.0000 C   0  0  0  0  0  0  0  0  0  0  0  0
    6.0665   -0.4950    0.0000 O   0  0  0  0  0  0  0  0  0  0  0  0
    4.3345   -0.4976    0.0000 C   0  0  0  0  0  0  0  0  0  0  0  0
    1.7348    0.0000    0.0000 C   0  0  0  0  0  0  0  0  0  0  0  0
    1.7348    1.0051    0.0000 C   0  0  0  0  0  0  0  0  0  0  0  0
  1  2  1  0  0  0  0
  2  3  1  0  0  0  0
  3  8  2  0  0  0  0
  3  4  1  0  0  0  0
  4  5  2  0  0  0  0
  5  6  1  0  0  0  0
  6  7  2  0  0  0  0
  7  8  1  0  0  0  0
  6  9  1  0  0  0  0
  9 30  1  0  0  0  0
  9 10  1  0  0  0  0
 10 11  1  0  0  0  0
 11 12  1  0  0  0  0
 12 13  1  0  0  0  0
 13 14  1  0  0  0  0
 14 15  1  1  0  0  0
 14 16  1  0  0  0  0
 14 17  1  0  0  0  0
 17 18  1  0  0  0  0
 18 19  1  0  0  0  0
 19 25  2  0  0  0  0
 19 20  1  0  0  0  0
 20 21  2  0  0  0  0
 21 22  1  0  0  0  0
 22 23  1  0  0  0  0
 22 24  2  0  0  0  0
 24 25  1  0  0  0  0
 25 26  1  0  0  0  0
 26 27  2  0  0  0  0
 26 28  1  0  0  0  0
 12 29  1  0  0  0  0
 29 30  1  0  0  0  0
M  END
> <ID>
1591228

$$$$
1591229
  -OEChem-05171416412D

 32 34  0     1  0  0  0  0  0999 V2000
    3.4685    3.0126    0.0000 C   0  0  0  0  0  0  0  0  0  0  0  0
    4.3352    3.5113    0.0000 C   0  0  0  0  0  0  0  0  0  0  0  0
    5.2005    3.0100    0.0000 O   0  0  0  0  0  0  0  0  0  0  0  0
    4.3367    4.5113    0.0000 C   0  0  0  0  0  0  0  0  0  0  0  0
    5.2094    5.0100    0.0000 C   0  0  0  0  0  0  0  0  0  0  0  0
    5.2021    6.0151    0.0000 C   0  0  0  0  0  0  0  0  0  0  0  0
    6.0659    6.5189    0.0000 C   0  0  0  0  0  0  0  0  0  0  0  0
    4.3308    6.5164    0.0000 C   0  0  0  0  0  0  0  0  0  0  0  0
    3.4669    6.0126    0.0000 C   0  0  0  0  0  0  0  0  0  0  0  0
    3.4655    5.0126    0.0000 C   0  0  0  0  0  0  0  0  0  0  0  0
    2.5995    4.5126    0.0000 O   0  0  0  0  0  0  0  0  0  0  0  0
    2.5995    3.5126    0.0000 C   0  0  0  0  0  0  0  0  0  0  0  0
    1.7334    3.0126    0.0000 C   0  0  2  0  0  0  0  0  0  0  0  0
    2.2334    2.1466    0.0000 H   0  0  0  0  0  0  0  0  0  0  0  0
    1.2334    3.8786    0.0000 O   0  0  0  0  0  0  0  0  0  0  0  0
    0.8674    2.5126    0.0000 C   0  0  0  0  0  0  0  0  0  0  0  0
    0.8674    1.5126    0.0000 N   0  0  0  0  0  0  0  0  0  0  0  0
    0.0000    1.0051    0.0000 C   0  0  0  0  0  0  0  0  0  0  0  0
    0.0000    0.0000    0.0000 C   0  0  0  0  0  0  0  0  0  0  0  0
    0.8674   -0.4976    0.0000 N   0  0  0  0  0  0  0  0  0  0  0  0
    1.7348    0.0000    0.0000 C   0  0  0  0  0  0  0  0  0  0  0  0
    1.7348    1.0051    0.0000 C   0  0  0  0  0  0  0  0  0  0  0  0
    0.8674   -1.4976    0.0000 C   0  0  0  0  0  0  0  0  0  0  0  0
    0.0014   -1.9976    0.0000 O   0  0  0  0  0  0  0  0  0  0  0  0
    1.7334   -1.9976    0.0000 N   0  0  0  0  0  0  0  0  0  0  0  0
    1.7334   -2.9976    0.0000 C   0  0  0  0  0  0  0  0  0  0  0  0
    2.6054   -3.4976    0.0000 C   0  0  0  0  0  0  0  0  0  0  0  0
    2.6055   -4.4977    0.0000 C   0  0  0  0  0  0  0  0  0  0  0  0
    1.7424   -5.0027    0.0000 C   0  0  0  0  0  0  0  0  0  0  0  0
    1.7468   -6.0027    0.0000 C   0  0  0  0  0  0  0  0  0  0  0  0
    0.8704   -4.5027    0.0000 C   0  0  0  0  0  0  0  0  0  0  0  0
    0.8615   -3.4976    0.0000 C   0  0  0  0  0  0  0  0  0  0  0  0
  1  2  1  0  0  0  0
  2  3  2  0  0  0  0
  2  4  1  0  0  0  0
  4 10  2  0  0  0  0
  4  5  1  0  0  0  0
  5  6  2  0  0  0  0
  6  7  1  0  0  0  0
  6  8  1  0  0  0  0
  8  9  2  0  0  0  0
  9 10  1  0  0  0  0
 10 11  1  0  0  0  0
 11 12  1  0  0  0  0
 12 13  1  0  0  0  0
 13 14  1  6  0  0  0
 13 15  1  0  0  0  0
 13 16  1  0  0  0  0
 16 17  1  0  0  0  0
 17 22  1  0  0  0  0
 17 18  1  0  0  0  0
 18 19  1  0  0  0  0
 19 20  1  0  0  0  0
 20 21  1  0  0  0  0
 21 22  1  0  0  0  0
 20 23  1  0  0  0  0
 23 24  2  0  0  0  0
 23 25  1  0  0  0  0
 25 26  1  0  0  0  0
 26 32  2  0  0  0  0
 26 27  1  0  0  0  0
 27 28  2  0  0  0  0
 28 29  1  0  0  0  0
 29 30  1  0  0  0  0
 29 31  2  0  0  0  0
 31 32  1  0  0  0  0
M  END
> <ID>
1591229

$$$$
1591230
  -OEChem-05171416412D

 29 31  0     1  0  0  0  0  0999 V2000
    3.4685    3.0126    0.0000 C   0  0  0  0  0  0  0  0  0  0  0  0
    4.3352    3.5113    0.0000 C   0  0  0  0  0  0  0  0  0  0  0  0
    5.2005    3.0100    0.0000 O   0  0  0  0  0  0  0  0  0  0  0  0
    4.3367    4.5113    0.0000 C   0  0  0  0  0  0  0  0  0  0  0  0
    5.2094    5.0100    0.0000 C   0  0  0  0  0  0  0  0  0  0  0  0
    5.2021    6.0151    0.0000 C   0  0  0  0  0  0  0  0  0  0  0  0
    6.0659    6.5189    0.0000 C   0  0  0  0  0  0  0  0  0  0  0  0
    4.3308    6.5164    0.0000 C   0  0  0  0  0  0  0  0  0  0  0  0
    3.4669    6.0126    0.0000 C   0  0  0  0  0  0  0  0  0  0  0  0
    3.4655    5.0126    0.0000 C   0  0  0  0  0  0  0  0  0  0  0  0
    2.5995    4.5126    0.0000 O   0  0  0  0  0  0  0  0  0  0  0  0
    2.5995    3.5126    0.0000 C   0  0  0  0  0  0  0  0  0  0  0  0
    1.7334    3.0126    0.0000 C   0  0  2  0  0  0  0  0  0  0  0  0
    2.2334    2.1466    0.0000 H   0  0  0  0  0  0  0  0  0  0  0  0
    1.2334    3.8786    0.0000 O   0  0  0  0  0  0  0  0  0  0  0  0
    0.8674    2.5126    0.0000 C   0  0  0  0  0  0  0  0  0  0  0  0
    0.8674    1.5126    0.0000 N   0  0  0  0  0  0  0  0  0  0  0  0
    0.0000    1.0051    0.0000 C   0  0  0  0  0  0  0  0  0  0  0  0
    0.0000    0.0000    0.0000 C   0  0  0  0  0  0  0  0  0  0  0  0
    0.8674   -0.4976    0.0000 N   0  0  0  0  0  0  0  0  0  0  0  0
    1.7348    0.0000    0.0000 C   0  0  0  0  0  0  0  0  0  0  0  0
    1.7348    1.0051    0.0000 C   0  0  0  0  0  0  0  0  0  0  0  0
    0.8674   -1.4976    0.0000 C   0  0  0  0  0  0  0  0  0  0  0  0
    1.7394   -1.9976    0.0000 C   0  0  0  0  0  0  0  0  0  0  0  0
    1.7395   -2.9977    0.0000 C   0  0  0  0  0  0  0  0  0  0  0  0
    0.8763   -3.5027    0.0000 C   0  0  0  0  0  0  0  0  0  0  0  0
    0.8807   -4.5027    0.0000 C   0  0  0  0  0  0  0  0  0  0  0  0
    0.0043   -3.0027    0.0000 C   0  0  0  0  0  0  0  0  0  0  0  0
   -0.0046   -1.9976    0.0000 C   0  0  0  0  0  0  0  0  0  0  0  0
  1  2  1  0  0  0  0
  2  3  2  0  0  0  0
  2  4  1  0  0  0  0
  4 10  2  0  0  0  0
  4  5  1  0  0  0  0
  5  6  2  0  0  0  0
  6  7  1  0  0  0  0
  6  8  1  0  0  0  0
  8  9  2  0  0  0  0
  9 10  1  0  0  0  0
 10 11  1  0  0  0  0
 11 12  1  0  0  0  0
 12 13  1  0  0  0  0
 13 14  1  6  0  0  0
 13 15  1  0  0  0  0
 13 16  1  0  0  0  0
 16 17  1  0  0  0  0
 17 22  1  0  0  0  0
 17 18  1  0  0  0  0
 18 19  1  0  0  0  0
 19 20  1  0  0  0  0
 20 21  1  0  0  0  0
 21 22  1  0  0  0  0
 20 23  1  0  0  0  0
 23 29  2  0  0  0  0
 23 24  1  0  0  0  0
 24 25  2  0  0  0  0
 25 26  1  0  0  0  0
 26 27  1  0  0  0  0
 26 28  2  0  0  0  0
 28 29  1  0  0  0  0
M  END
> <ID>
1591230

$$$$
1591231
  -OEChem-05171416412D

 33 36  0     1  0  0  0  0  0999 V2000
    1.2334    3.8786    0.0000 O   0  0  0  0  0  0  0  0  0  0  0  0
    1.7334    3.0126    0.0000 C   0  0  1  0  0  0  0  0  0  0  0  0
    2.2334    2.1466    0.0000 H   0  0  0  0  0  0  0  0  0  0  0  0
    2.5995    3.5126    0.0000 C   0  0  0  0  0  0  0  0  0  0  0  0
    2.5995    4.5126    0.0000 O   0  0  0  0  0  0  0  0  0  0  0  0
    3.4655    5.0126    0.0000 C   0  0  0  0  0  0  0  0  0  0  0  0
    3.4625    6.0178    0.0000 C   0  0  0  0  0  0  0  0  0  0  0  0
    4.3285    6.5179    0.0000 C   0  0  0  0  0  0  0  0  0  0  0  0
    5.1975    6.0229    0.0000 C   0  0  0  0  0  0  0  0  0  0  0  0
    5.2005    5.0177    0.0000 C   0  0  0  0  0  0  0  0  0  0  0  0
    4.3345    4.5075    0.0000 C   0  0  0  0  0  0  0  0  0  0  0  0
    6.0613    6.5267    0.0000 C   0  0  0  0  0  0  0  0  0  0  0  0
    6.9295    6.0305    0.0000 O   0  0  0  0  0  0  0  0  0  0  0  0
    6.0569    7.5267    0.0000 C   0  0  0  0  0  0  0  0  0  0  0  0
    5.1827    8.0229    0.0000 C   0  0  0  0  0  0  0  0  0  0  0  0
    5.1783    9.0229    0.0000 C   0  0  0  0  0  0  0  0  0  0  0  0
    6.0391    9.5318    0.0000 C   0  0  0  0  0  0  0  0  0  0  0  0
    6.9133    9.0356    0.0000 C   0  0  0  0  0  0  0  0  0  0  0  0
    6.9267    8.0305    0.0000 C   0  0  0  0  0  0  0  0  0  0  0  0
    0.8674    2.5126    0.0000 C   0  0  0  0  0  0  0  0  0  0  0  0
    0.8674    1.5126    0.0000 N   0  0  0  0  0  0  0  0  0  0  0  0
    0.0000    1.0051    0.0000 C   0  0  0  0  0  0  0  0  0  0  0  0
    0.0000    0.0000    0.0000 C   0  0  0  0  0  0  0  0  0  0  0  0
    0.8674   -0.4976    0.0000 N   0  0  0  0  0  0  0  0  0  0  0  0
    1.7348    0.0000    0.0000 C   0  0  0  0  0  0  0  0  0  0  0  0
    1.7348    1.0051    0.0000 C   0  0  0  0  0  0  0  0  0  0  0  0
    0.8674   -1.4976    0.0000 C   0  0  0  0  0  0  0  0  0  0  0  0
    1.7394   -1.9976    0.0000 C   0  0  0  0  0  0  0  0  0  0  0  0
    1.7395   -2.9977    0.0000 C   0  0  0  0  0  0  0  0  0  0  0  0
    0.8763   -3.5027    0.0000 C   0  0  0  0  0  0  0  0  0  0  0  0
    0.8807   -4.5027    0.0000 F   0  0  0  0  0  0  0  0  0  0  0  0
    0.0043   -3.0027    0.0000 C   0  0  0  0  0  0  0  0  0  0  0  0
   -0.0046   -1.9976    0.0000 C   0  0  0  0  0  0  0  0  0  0  0  0
  1  2  1  0  0  0  0
  2  3  1  6  0  0  0
  2  4  1  0  0  0  0
  4  5  1  0  0  0  0
  5  6  1  0  0  0  0
  6 11  2  0  0  0  0
  6  7  1  0  0  0  0
  7  8  2  0  0  0  0
  8  9  1  0  0  0  0
  9 10  2  0  0  0  0
 10 11  1  0  0  0  0
  9 12  1  0  0  0  0
 12 13  2  0  0  0  0
 12 14  1  0  0  0  0
 14 19  2  0  0  0  0
 14 15  1  0  0  0  0
 15 16  2  0  0  0  0
 16 17  1  0  0  0  0
 17 18  2  0  0  0  0
 18 19  1  0  0  0  0
  2 20  1  0  0  0  0
 20 21  1  0  0  0  0
 21 26  1  0  0  0  0
 21 22  1  0  0  0  0
 22 23  1  0  0  0  0
 23 24  1  0  0  0  0
 24 25  1  0  0  0  0
 25 26  1  0  0  0  0
 24 27  1  0  0  0  0
 27 33  2  0  0  0  0
 27 28  1  0  0  0  0
 28 29  2  0  0  0  0
 29 30  1  0  0  0  0
 30 31  1  0  0  0  0
 30 32  2  0  0  0  0
 32 33  1  0  0  0  0
M  END
> <ID>
1591231

$$$$
1591232
  -OEChem-05171416412D

 33 36  0     1  0  0  0  0  0999 V2000
   -0.8699    2.5113    0.0000 C   0  0  0  0  0  0  0  0  0  0  0  0
   -0.0046    3.0126    0.0000 C   0  0  0  0  0  0  0  0  0  0  0  0
   -0.0047    4.0127    0.0000 C   0  0  0  0  0  0  0  0  0  0  0  0
    0.8585    4.5177    0.0000 C   0  0  0  0  0  0  0  0  0  0  0  0
    1.7305    4.0177    0.0000 C   0  0  0  0  0  0  0  0  0  0  0  0
    1.7394    3.0126    0.0000 C   0  0  0  0  0  0  0  0  0  0  0  0
    0.8674    2.5126    0.0000 C   0  0  0  0  0  0  0  0  0  0  0  0
    0.8674    1.5126    0.0000 N   0  0  0  0  0  0  0  0  0  0  0  0
    0.0000    1.0051    0.0000 C   0  0  0  0  0  0  0  0  0  0  0  0
    0.0000    0.0000    0.0000 C   0  0  0  0  0  0  0  0  0  0  0  0
    0.8674   -0.4976    0.0000 N   0  0  0  0  0  0  0  0  0  0  0  0
    0.8674   -1.4976    0.0000 C   0  0  0  0  0  0  0  0  0  0  0  0
    1.7334   -1.9976    0.0000 C   0  0  1  0  0  0  0  0  0  0  0  0
    2.2334   -1.1316    0.0000 H   0  0  0  0  0  0  0  0  0  0  0  0
    1.2334   -2.8636    0.0000 O   0  0  0  0  0  0  0  0  0  0  0  0
    2.5995   -2.4976    0.0000 C   0  0  0  0  0  0  0  0  0  0  0  0
    3.4655   -1.9976    0.0000 O   0  0  0  0  0  0  0  0  0  0  0  0
    4.3315   -2.4976    0.0000 C   0  0  0  0  0  0  0  0  0  0  0  0
    5.2005   -1.9924    0.0000 C   0  0  0  0  0  0  0  0  0  0  0  0
    6.0666   -2.4924    0.0000 C   0  0  0  0  0  0  0  0  0  0  0  0
    6.0725   -3.4924    0.0000 C   0  0  0  0  0  0  0  0  0  0  0  0
    5.2034   -3.9976    0.0000 C   0  0  0  0  0  0  0  0  0  0  0  0
    4.3285   -3.5027    0.0000 C   0  0  0  0  0  0  0  0  0  0  0  0
    6.9407   -3.9886    0.0000 C   0  0  0  0  0  0  0  0  0  0  0  0
    6.9451   -4.9886    0.0000 O   0  0  0  0  0  0  0  0  0  0  0  0
    7.8045   -3.4848    0.0000 C   0  0  0  0  0  0  0  0  0  0  0  0
    7.7971   -2.4796    0.0000 C   0  0  0  0  0  0  0  0  0  0  0  0
    8.6609   -1.9758    0.0000 C   0  0  0  0  0  0  0  0  0  0  0  0
    9.5321   -2.4669    0.0000 C   0  0  0  0  0  0  0  0  0  0  0  0
    9.5395   -3.4720    0.0000 C   0  0  0  0  0  0  0  0  0  0  0  0
    8.6757   -3.9861    0.0000 C   0  0  0  0  0  0  0  0  0  0  0  0
    1.7348    0.0000    0.0000 C   0  0  0  0  0  0  0  0  0  0  0  0
    1.7348    1.0051    0.0000 C   0  0  0  0  0  0  0  0  0  0  0  0
  1  2  1  0  0  0  0
  2  7  2  0  0  0  0
  2  3  1  0  0  0  0
  3  4  2  0  0  0  0
  4  5  1  0  0  0  0
  5  6  2  0  0  0  0
  6  7  1  0  0  0  0
  7  8  1  0  0  0  0
  8 33  1  0  0  0  0
  8  9  1  0  0  0  0
  9 10  1  0  0  0  0
 10 11  1  0  0  0  0
 11 12  1  0  0  0  0
 12 13  1  0  0  0  0
 13 14  1  1  0  0  0
 13 15  1  0  0  0  0
 13 16  1  0  0  0  0
 16 17  1  0  0  0  0
 17 18  1  0  0  0  0
 18 23  2  0  0  0  0
 18 19  1  0  0  0  0
 19 20  2  0  0  0  0
 20 21  1  0  0  0  0
 21 22  2  0  0  0  0
 22 23  1  0  0  0  0
 21 24  1  0  0  0  0
 24 25  2  0  0  0  0
 24 26  1  0  0  0  0
 26 31  2  0  0  0  0
 26 27  1  0  0  0  0
 27 28  2  0  0  0  0
 28 29  1  0  0  0  0
 29 30  2  0  0  0  0
 30 31  1  0  0  0  0
 11 32  1  0  0  0  0
 32 33  1  0  0  0  0
M  END
> <ID>
1591232

$$$$
1591233
  -OEChem-05171416412D

 34 37  0     1  0  0  0  0  0999 V2000
    2.5935    4.5228    0.0000 C   0  0  0  0  0  0  0  0  0  0  0  0
    1.7305    4.0177    0.0000 C   0  0  0  0  0  0  0  0  0  0  0  0
    0.8585    4.5177    0.0000 C   0  0  0  0  0  0  0  0  0  0  0  0
   -0.0047    4.0127    0.0000 C   0  0  0  0  0  0  0  0  0  0  0  0
   -0.0046    3.0126    0.0000 C   0  0  0  0  0  0  0  0  0  0  0  0
    0.8674    2.5126    0.0000 C   0  0  0  0  0  0  0  0  0  0  0  0
    0.8674    1.5126    0.0000 N   0  0  0  0  0  0  0  0  0  0  0  0
    0.0000    1.0051    0.0000 C   0  0  0  0  0  0  0  0  0  0  0  0
    0.0000    0.0000    0.0000 C   0  0  0  0  0  0  0  0  0  0  0  0
    0.8674   -0.4976    0.0000 N   0  0  0  0  0  0  0  0  0  0  0  0
    0.8674   -1.4976    0.0000 C   0  0  0  0  0  0  0  0  0  0  0  0
    1.7334   -1.9976    0.0000 C   0  0  1  0  0  0  0  0  0  0  0  0
    2.2334   -1.1316    0.0000 H   0  0  0  0  0  0  0  0  0  0  0  0
    1.2334   -2.8636    0.0000 O   0  0  0  0  0  0  0  0  0  0  0  0
    2.5995   -2.4976    0.0000 C   0  0  0  0  0  0  0  0  0  0  0  0
    3.4655   -1.9976    0.0000 O   0  0  0  0  0  0  0  0  0  0  0  0
    4.3315   -2.4976    0.0000 C   0  0  0  0  0  0  0  0  0  0  0  0
    5.2005   -1.9924    0.0000 C   0  0  0  0  0  0  0  0  0  0  0  0
    6.0666   -2.4924    0.0000 C   0  0  0  0  0  0  0  0  0  0  0  0
    6.0725   -3.4924    0.0000 C   0  0  0  0  0  0  0  0  0  0  0  0
    5.2034   -3.9976    0.0000 C   0  0  0  0  0  0  0  0  0  0  0  0
    4.3285   -3.5027    0.0000 C   0  0  0  0  0  0  0  0  0  0  0  0
    6.9407   -3.9886    0.0000 C   0  0  0  0  0  0  0  0  0  0  0  0
    6.9451   -4.9886    0.0000 O   0  0  0  0  0  0  0  0  0  0  0  0
    7.8045   -3.4848    0.0000 C   0  0  0  0  0  0  0  0  0  0  0  0
    7.7971   -2.4796    0.0000 C   0  0  0  0  0  0  0  0  0  0  0  0
    8.6609   -1.9758    0.0000 C   0  0  0  0  0  0  0  0  0  0  0  0
    9.5321   -2.4669    0.0000 C   0  0  0  0  0  0  0  0  0  0  0  0
    9.5395   -3.4720    0.0000 C   0  0  0  0  0  0  0  0  0  0  0  0
    8.6757   -3.9861    0.0000 C   0  0  0  0  0  0  0  0  0  0  0  0
    1.7348    0.0000    0.0000 C   0  0  0  0  0  0  0  0  0  0  0  0
    1.7348    1.0051    0.0000 C   0  0  0  0  0  0  0  0  0  0  0  0
    1.7394    3.0126    0.0000 C   0  0  0  0  0  0  0  0  0  0  0  0
    2.6069    2.5152    0.0000 C   0  0  0  0  0  0  0  0  0  0  0  0
  1  2  1  0  0  0  0
  2 33  2  0  0  0  0
  2  3  1  0  0  0  0
  3  4  2  0  0  0  0
  4  5  1  0  0  0  0
  5  6  2  0  0  0  0
  6  7  1  0  0  0  0
  7 32  1  0  0  0  0
  7  8  1  0  0  0  0
  8  9  1  0  0  0  0
  9 10  1  0  0  0  0
 10 11  1  0  0  0  0
 11 12  1  0  0  0  0
 12 13  1  1  0  0  0
 12 14  1  0  0  0  0
 12 15  1  0  0  0  0
 15 16  1  0  0  0  0
 16 17  1  0  0  0  0
 17 22  2  0  0  0  0
 17 18  1  0  0  0  0
 18 19  2  0  0  0  0
 19 20  1  0  0  0  0
 20 21  2  0  0  0  0
 21 22  1  0  0  0  0
 20 23  1  0  0  0  0
 23 24  2  0  0  0  0
 23 25  1  0  0  0  0
 25 30  2  0  0  0  0
 25 26  1  0  0  0  0
 26 27  2  0  0  0  0
 27 28  1  0  0  0  0
 28 29  2  0  0  0  0
 29 30  1  0  0  0  0
 10 31  1  0  0  0  0
 31 32  1  0  0  0  0
  6 33  1  0  0  0  0
 33 34  1  0  0  0  0
M  END
> <ID>
1591233

$$$$
1591234
  -OEChem-05171416412D

 30 32  0     1  0  0  0  0  0999 V2000
    6.9428    8.0076    0.0000 C   0  0  0  0  0  0  0  0  0  0  0  0
    6.0746    7.5115    0.0000 C   0  0  0  0  0  0  0  0  0  0  0  0
    6.0701    6.5115    0.0000 C   0  0  0  0  0  0  0  0  0  0  0  0
    6.9340    6.0077    0.0000 O   0  0  0  0  0  0  0  0  0  0  0  0
    5.2019    6.0153    0.0000 C   0  0  0  0  0  0  0  0  0  0  0  0
    5.2005    5.0101    0.0000 C   0  0  0  0  0  0  0  0  0  0  0  0
    4.3323    4.5138    0.0000 C   0  0  0  0  0  0  0  0  0  0  0  0
    3.4655    5.0126    0.0000 C   0  0  0  0  0  0  0  0  0  0  0  0
    2.5995    4.5126    0.0000 O   0  0  0  0  0  0  0  0  0  0  0  0
    2.5995    3.5126    0.0000 C   0  0  0  0  0  0  0  0  0  0  0  0
    1.7334    3.0126    0.0000 C   0  0  2  0  0  0  0  0  0  0  0  0
    2.2334    2.1466    0.0000 H   0  0  0  0  0  0  0  0  0  0  0  0
    1.2334    3.8786    0.0000 O   0  0  0  0  0  0  0  0  0  0  0  0
    0.8674    2.5126    0.0000 C   0  0  0  0  0  0  0  0  0  0  0  0
    0.8674    1.5126    0.0000 N   0  0  0  0  0  0  0  0  0  0  0  0
    0.0000    1.0051    0.0000 C   0  0  0  0  0  0  0  0  0  0  0  0
    0.0000    0.0000    0.0000 C   0  0  0  0  0  0  0  0  0  0  0  0
    0.8674   -0.4976    0.0000 N   0  0  0  0  0  0  0  0  0  0  0  0
    1.7348    0.0000    0.0000 C   0  0  0  0  0  0  0  0  0  0  0  0
    1.7348    1.0051    0.0000 C   0  0  0  0  0  0  0  0  0  0  0  0
    0.8674   -1.4976    0.0000 C   0  0  0  0  0  0  0  0  0  0  0  0
   -0.0046   -1.9976    0.0000 C   0  0  0  0  0  0  0  0  0  0  0  0
   -0.0047   -2.9977    0.0000 C   0  0  0  0  0  0  0  0  0  0  0  0
    0.8585   -3.5027    0.0000 C   0  0  0  0  0  0  0  0  0  0  0  0
    1.7305   -3.0027    0.0000 C   0  0  0  0  0  0  0  0  0  0  0  0
    2.5935   -3.5078    0.0000 C   0  0  0  0  0  0  0  0  0  0  0  0
    1.7394   -1.9976    0.0000 C   0  0  0  0  0  0  0  0  0  0  0  0
    2.6069   -1.5002    0.0000 C   0  0  0  0  0  0  0  0  0  0  0  0
    3.4669    6.0178    0.0000 C   0  0  0  0  0  0  0  0  0  0  0  0
    4.3352    6.5242    0.0000 C   0  0  0  0  0  0  0  0  0  0  0  0
  1  2  1  0  0  0  0
  2  3  1  0  0  0  0
  3  4  2  0  0  0  0
  3  5  1  0  0  0  0
  5 30  2  0  0  0  0
  5  6  1  0  0  0  0
  6  7  2  0  0  0  0
  7  8  1  0  0  0  0
  8  9  1  0  0  0  0
  9 10  1  0  0  0  0
 10 11  1  0  0  0  0
 11 12  1  6  0  0  0
 11 13  1  0  0  0  0
 11 14  1  0  0  0  0
 14 15  1  0  0  0  0
 15 20  1  0  0  0  0
 15 16  1  0  0  0  0
 16 17  1  0  0  0  0
 17 18  1  0  0  0  0
 18 19  1  0  0  0  0
 19 20  1  0  0  0  0
 18 21  1  0  0  0  0
 21 27  2  0  0  0  0
 21 22  1  0  0  0  0
 22 23  2  0  0  0  0
 23 24  1  0  0  0  0
 24 25  2  0  0  0  0
 25 26  1  0  0  0  0
 25 27  1  0  0  0  0
 27 28  1  0  0  0  0
  8 29  2  0  0  0  0
 29 30  1  0  0  0  0
M  END
> <ID>
1591234

$$$$
1591235
  -OEChem-05171416412D

 29 31  0     1  0  0  0  0  0999 V2000
    6.9428    8.0076    0.0000 C   0  0  0  0  0  0  0  0  0  0  0  0
    6.0746    7.5115    0.0000 C   0  0  0  0  0  0  0  0  0  0  0  0
    6.0701    6.5115    0.0000 C   0  0  0  0  0  0  0  0  0  0  0  0
    6.9340    6.0077    0.0000 O   0  0  0  0  0  0  0  0  0  0  0  0
    5.2019    6.0153    0.0000 C   0  0  0  0  0  0  0  0  0  0  0  0
    5.2005    5.0101    0.0000 C   0  0  0  0  0  0  0  0  0  0  0  0
    4.3323    4.5138    0.0000 C   0  0  0  0  0  0  0  0  0  0  0  0
    3.4655    5.0126    0.0000 C   0  0  0  0  0  0  0  0  0  0  0  0
    2.5995    4.5126    0.0000 O   0  0  0  0  0  0  0  0  0  0  0  0
    2.5995    3.5126    0.0000 C   0  0  0  0  0  0  0  0  0  0  0  0
    1.7334    3.0126    0.0000 C   0  0  2  0  0  0  0  0  0  0  0  0
    2.2334    2.1466    0.0000 H   0  0  0  0  0  0  0  0  0  0  0  0
    1.2334    3.8786    0.0000 O   0  0  0  0  0  0  0  0  0  0  0  0
    0.8674    2.5126    0.0000 C   0  0  0  0  0  0  0  0  0  0  0  0
    0.8674    1.5126    0.0000 N   0  0  0  0  0  0  0  0  0  0  0  0
    0.0000    1.0051    0.0000 C   0  0  0  0  0  0  0  0  0  0  0  0
    0.0000    0.0000    0.0000 C   0  0  0  0  0  0  0  0  0  0  0  0
    0.8674   -0.4976    0.0000 N   0  0  0  0  0  0  0  0  0  0  0  0
    1.7348    0.0000    0.0000 C   0  0  0  0  0  0  0  0  0  0  0  0
    1.7348    1.0051    0.0000 C   0  0  0  0  0  0  0  0  0  0  0  0
    0.8674   -1.4976    0.0000 C   0  0  0  0  0  0  0  0  0  0  0  0
    1.7394   -1.9976    0.0000 C   0  0  0  0  0  0  0  0  0  0  0  0
    1.7395   -2.9977    0.0000 C   0  0  0  0  0  0  0  0  0  0  0  0
    0.8763   -3.5027    0.0000 C   0  0  0  0  0  0  0  0  0  0  0  0
    0.8807   -4.5027    0.0000 F   0  0  0  0  0  0  0  0  0  0  0  0
    0.0043   -3.0027    0.0000 C   0  0  0  0  0  0  0  0  0  0  0  0
   -0.0046   -1.9976    0.0000 C   0  0  0  0  0  0  0  0  0  0  0  0
    3.4669    6.0178    0.0000 C   0  0  0  0  0  0  0  0  0  0  0  0
    4.3352    6.5242    0.0000 C   0  0  0  0  0  0  0  0  0  0  0  0
  1  2  1  0  0  0  0
  2  3  1  0  0  0  0
  3  4  2  0  0  0  0
  3  5  1  0  0  0  0
  5 29  2  0  0  0  0
  5  6  1  0  0  0  0
  6  7  2  0  0  0  0
  7  8  1  0  0  0  0
  8  9  1  0  0  0  0
  9 10  1  0  0  0  0
 10 11  1  0  0  0  0
 11 12  1  6  0  0  0
 11 13  1  0  0  0  0
 11 14  1  0  0  0  0
 14 15  1  0  0  0  0
 15 20  1  0  0  0  0
 15 16  1  0  0  0  0
 16 17  1  0  0  0  0
 17 18  1  0  0  0  0
 18 19  1  0  0  0  0
 19 20  1  0  0  0  0
 18 21  1  0  0  0  0
 21 27  2  0  0  0  0
 21 22  1  0  0  0  0
 22 23  2  0  0  0  0
 23 24  1  0  0  0  0
 24 25  1  0  0  0  0
 24 26  2  0  0  0  0
 26 27  1  0  0  0  0
  8 28  2  0  0  0  0
 28 29  1  0  0  0  0
M  END
> <ID>
1591235

$$$$
1591236
  -OEChem-05171416412D

 29 31  0     1  0  0  0  0  0999 V2000
    6.9428    8.0076    0.0000 C   0  0  0  0  0  0  0  0  0  0  0  0
    6.0746    7.5115    0.0000 C   0  0  0  0  0  0  0  0  0  0  0  0
    6.0701    6.5115    0.0000 C   0  0  0  0  0  0  0  0  0  0  0  0
    6.9340    6.0077    0.0000 O   0  0  0  0  0  0  0  0  0  0  0  0
    5.2019    6.0153    0.0000 C   0  0  0  0  0  0  0  0  0  0  0  0
    5.2005    5.0101    0.0000 C   0  0  0  0  0  0  0  0  0  0  0  0
    4.3323    4.5138    0.0000 C   0  0  0  0  0  0  0  0  0  0  0  0
    3.4655    5.0126    0.0000 C   0  0  0  0  0  0  0  0  0  0  0  0
    2.5995    4.5126    0.0000 O   0  0  0  0  0  0  0  0  0  0  0  0
    2.5995    3.5126    0.0000 C   0  0  0  0  0  0  0  0  0  0  0  0
    1.7334    3.0126    0.0000 C   0  0  2  0  0  0  0  0  0  0  0  0
    2.2334    2.1466    0.0000 H   0  0  0  0  0  0  0  0  0  0  0  0
    1.2334    3.8786    0.0000 O   0  0  0  0  0  0  0  0  0  0  0  0
    0.8674    2.5126    0.0000 C   0  0  0  0  0  0  0  0  0  0  0  0
    0.8674    1.5126    0.0000 N   0  0  0  0  0  0  0  0  0  0  0  0
    0.0000    1.0051    0.0000 C   0  0  0  0  0  0  0  0  0  0  0  0
    0.0000    0.0000    0.0000 C   0  0  0  0  0  0  0  0  0  0  0  0
    0.8674   -0.4976    0.0000 N   0  0  0  0  0  0  0  0  0  0  0  0
    1.7348    0.0000    0.0000 C   0  0  0  0  0  0  0  0  0  0  0  0
    1.7348    1.0051    0.0000 C   0  0  0  0  0  0  0  0  0  0  0  0
    0.8674   -1.4976    0.0000 C   0  0  0  0  0  0  0  0  0  0  0  0
    1.7327   -1.9989    0.0000 C   0  0  0  0  0  0  0  0  0  0  0  0
    1.7371   -2.9989    0.0000 C   0  0  0  0  0  0  0  0  0  0  0  0
    0.8673   -3.5028    0.0000 C   0  0  0  0  0  0  0  0  0  0  0  0
   -0.0069   -3.0066    0.0000 C   0  0  0  0  0  0  0  0  0  0  0  0
   -0.0024   -2.0015    0.0000 C   0  0  0  0  0  0  0  0  0  0  0  0
   -0.8677   -1.5002    0.0000 C   0  0  0  0  0  0  0  0  0  0  0  0
    3.4669    6.0178    0.0000 C   0  0  0  0  0  0  0  0  0  0  0  0
    4.3352    6.5242    0.0000 C   0  0  0  0  0  0  0  0  0  0  0  0
  1  2  1  0  0  0  0
  2  3  1  0  0  0  0
  3  4  2  0  0  0  0
  3  5  1  0  0  0  0
  5 29  2  0  0  0  0
  5  6  1  0  0  0  0
  6  7  2  0  0  0  0
  7  8  1  0  0  0  0
  8  9  1  0  0  0  0
  9 10  1  0  0  0  0
 10 11  1  0  0  0  0
 11 12  1  6  0  0  0
 11 13  1  0  0  0  0
 11 14  1  0  0  0  0
 14 15  1  0  0  0  0
 15 20  1  0  0  0  0
 15 16  1  0  0  0  0
 16 17  1  0  0  0  0
 17 18  1  0  0  0  0
 18 19  1  0  0  0  0
 19 20  1  0  0  0  0
 18 21  1  0  0  0  0
 21 26  2  0  0  0  0
 21 22  1  0  0  0  0
 22 23  2  0  0  0  0
 23 24  1  0  0  0  0
 24 25  2  0  0  0  0
 25 26  1  0  0  0  0
 26 27  1  0  0  0  0
  8 28  2  0  0  0  0
 28 29  1  0  0  0  0
M  END
> <ID>
1591236

$$$$
1591237
  -OEChem-05171416412D

 22 23  0     1  0  0  0  0  0999 V2000
    6.0754    8.5054    0.0000 C   0  0  0  0  0  0  0  0  0  0  0  0
    5.2072    8.0093    0.0000 C   0  0  0  0  0  0  0  0  0  0  0  0
    5.2027    7.0093    0.0000 C   0  0  0  0  0  0  0  0  0  0  0  0
    6.0666    6.5055    0.0000 O   0  0  0  0  0  0  0  0  0  0  0  0
    4.3345    6.5131    0.0000 C   0  0  0  0  0  0  0  0  0  0  0  0
    4.3331    5.5079    0.0000 C   0  0  0  0  0  0  0  0  0  0  0  0
    3.4649    5.0116    0.0000 C   0  0  0  0  0  0  0  0  0  0  0  0
    2.5981    5.5104    0.0000 C   0  0  0  0  0  0  0  0  0  0  0  0
    1.7321    5.0104    0.0000 O   0  0  0  0  0  0  0  0  0  0  0  0
    1.7321    4.0104    0.0000 C   0  0  0  0  0  0  0  0  0  0  0  0
    0.8660    3.5104    0.0000 C   0  0  2  0  0  0  0  0  0  0  0  0
    1.3660    2.6444    0.0000 H   0  0  0  0  0  0  0  0  0  0  0  0
    0.3660    4.3764    0.0000 O   0  0  0  0  0  0  0  0  0  0  0  0
   -0.0000    3.0104    0.0000 C   0  0  0  0  0  0  0  0  0  0  0  0
   -0.0000    2.0104    0.0000 N   0  0  0  0  0  0  0  0  0  0  0  0
   -0.8675    1.5027    0.0000 C   0  0  0  0  0  0  0  0  0  0  0  0
   -0.8675    0.4975    0.0000 C   0  0  0  0  0  0  0  0  0  0  0  0
    0.0000    0.0000    0.0000 C   0  0  0  0  0  0  0  0  0  0  0  0
    0.8675    0.4975    0.0000 C   0  0  0  0  0  0  0  0  0  0  0  0
    0.8675    1.5027    0.0000 C   0  0  0  0  0  0  0  0  0  0  0  0
    2.5995    6.5156    0.0000 C   0  0  0  0  0  0  0  0  0  0  0  0
    3.4678    7.0220    0.0000 C   0  0  0  0  0  0  0  0  0  0  0  0
  1  2  1  0  0  0  0
  2  3  1  0  0  0  0
  3  4  2  0  0  0  0
  3  5  1  0  0  0  0
  5 22  2  0  0  0  0
  5  6  1  0  0  0  0
  6  7  2  0  0  0  0
  7  8  1  0  0  0  0
  8  9  1  0  0  0  0
  9 10  1  0  0  0  0
 10 11  1  0  0  0  0
 11 12  1  6  0  0  0
 11 13  1  0  0  0  0
 11 14  1  0  0  0  0
 14 15  1  0  0  0  0
 15 20  1  0  0  0  0
 15 16  1  0  0  0  0
 16 17  1  0  0  0  0
 17 18  1  0  0  0  0
 18 19  1  0  0  0  0
 19 20  1  0  0  0  0
  8 21  2  0  0  0  0
 21 22  1  0  0  0  0
M  END
> <ID>
1591237

$$$$
1591238
  -OEChem-05171416412D

 32 35  0     1  0  0  0  0  0999 V2000
    0.5015   -2.8635    0.0000 O   0  0  0  0  0  0  0  0  0  0  0  0
    0.0015   -1.9975    0.0000 C   0  0  1  0  0  0  0  0  0  0  0  0
   -0.4985   -1.1315    0.0000 H   0  0  0  0  0  0  0  0  0  0  0  0
   -0.8646   -2.4975    0.0000 C   0  0  0  0  0  0  0  0  0  0  0  0
   -0.8646   -3.4975    0.0000 O   0  0  0  0  0  0  0  0  0  0  0  0
   -1.7306   -3.9975    0.0000 C   0  0  0  0  0  0  0  0  0  0  0  0
   -1.7276   -5.0027    0.0000 C   0  0  0  0  0  0  0  0  0  0  0  0
   -2.5936   -5.5028    0.0000 C   0  0  0  0  0  0  0  0  0  0  0  0
   -3.4626   -5.0078    0.0000 C   0  0  0  0  0  0  0  0  0  0  0  0
   -3.4656   -4.0026    0.0000 C   0  0  0  0  0  0  0  0  0  0  0  0
   -2.5996   -3.4924    0.0000 C   0  0  0  0  0  0  0  0  0  0  0  0
   -4.3264   -5.5116    0.0000 C   0  0  0  0  0  0  0  0  0  0  0  0
   -5.1946   -5.0154    0.0000 O   0  0  0  0  0  0  0  0  0  0  0  0
   -4.3220   -6.5116    0.0000 C   0  0  0  0  0  0  0  0  0  0  0  0
   -5.1858   -7.0154    0.0000 C   0  0  0  0  0  0  0  0  0  0  0  0
   -5.1814   -8.0154    0.0000 C   0  0  0  0  0  0  0  0  0  0  0  0
   -4.3083   -8.5184    0.0000 C   0  0  0  0  0  0  0  0  0  0  0  0
   -4.3052   -9.5241    0.0000 C   0  0  0  0  0  0  0  0  0  0  0  0
   -5.1754  -10.0267    0.0000 C   0  0  0  0  0  0  0  0  0  0  0  0
   -6.0429   -9.5293    0.0000 C   0  0  0  0  0  0  0  0  0  0  0  0
   -6.9113  -10.0286    0.0000 C   0  0  0  0  0  0  0  0  0  0  0  0
   -7.7800   -9.5323    0.0000 C   0  0  0  0  0  0  0  0  0  0  0  0
   -7.7818   -8.5266    0.0000 C   0  0  0  0  0  0  0  0  0  0  0  0
   -6.9147   -8.0173    0.0000 C   0  0  0  0  0  0  0  0  0  0  0  0
   -6.0460   -8.5236    0.0000 C   0  0  0  0  0  0  0  0  0  0  0  0
    0.8675   -1.4975    0.0000 C   0  0  0  0  0  0  0  0  0  0  0  0
    0.8675   -0.4975    0.0000 N   0  0  0  0  0  0  0  0  0  0  0  0
    0.0000    0.0000    0.0000 C   0  0  0  0  0  0  0  0  0  0  0  0
   -0.0000    1.0052    0.0000 C   0  0  0  0  0  0  0  0  0  0  0  0
    0.8675    1.5129    0.0000 O   0  0  0  0  0  0  0  0  0  0  0  0
    1.7350    1.0052    0.0000 C   0  0  0  0  0  0  0  0  0  0  0  0
    1.7350    0.0000    0.0000 C   0  0  0  0  0  0  0  0  0  0  0  0
  1  2  1  0  0  0  0
  2  3  1  6  0  0  0
  2  4  1  0  0  0  0
  4  5  1  0  0  0  0
  5  6  1  0  0  0  0
  6 11  2  0  0  0  0
  6  7  1  0  0  0  0
  7  8  2  0  0  0  0
  8  9  1  0  0  0  0
  9 10  2  0  0  0  0
 10 11  1  0  0  0  0
  9 12  1  0  0  0  0
 12 13  2  0  0  0  0
 12 14  1  0  0  0  0
 14 15  1  0  0  0  0
 15 16  1  0  0  0  0
 16 25  2  0  0  0  0
 16 17  1  0  0  0  0
 17 18  2  0  0  0  0
 18 19  1  0  0  0  0
 19 20  2  0  0  0  0
 20 25  1  0  0  0  0
 20 21  1  0  0  0  0
 21 22  2  0  0  0  0
 22 23  1  0  0  0  0
 23 24  2  0  0  0  0
 24 25  1  0  0  0  0
  2 26  1  0  0  0  0
 26 27  1  0  0  0  0
 27 32  1  0  0  0  0
 27 28  1  0  0  0  0
 28 29  1  0  0  0  0
 29 30  1  0  0  0  0
 30 31  1  0  0  0  0
 31 32  1  0  0  0  0
M  END
> <ID>
1591238

$$$$
1591239
  -OEChem-05171416412D

 34 37  0     1  0  0  0  0  0999 V2000
    2.5935    4.5228    0.0000 C   0  0  0  0  0  0  0  0  0  0  0  0
    1.7305    4.0177    0.0000 C   0  0  0  0  0  0  0  0  0  0  0  0
    0.8585    4.5177    0.0000 C   0  0  0  0  0  0  0  0  0  0  0  0
   -0.0047    4.0127    0.0000 C   0  0  0  0  0  0  0  0  0  0  0  0
   -0.0046    3.0126    0.0000 C   0  0  0  0  0  0  0  0  0  0  0  0
    0.8674    2.5126    0.0000 C   0  0  0  0  0  0  0  0  0  0  0  0
    0.8674    1.5126    0.0000 N   0  0  0  0  0  0  0  0  0  0  0  0
    0.0000    1.0051    0.0000 C   0  0  0  0  0  0  0  0  0  0  0  0
    0.0000    0.0000    0.0000 C   0  0  0  0  0  0  0  0  0  0  0  0
    0.8674   -0.4976    0.0000 N   0  0  0  0  0  0  0  0  0  0  0  0
    0.8674   -1.4976    0.0000 C   0  0  0  0  0  0  0  0  0  0  0  0
    1.7334   -1.9976    0.0000 C   0  0  1  0  0  0  0  0  0  0  0  0
    2.2334   -1.1316    0.0000 H   0  0  0  0  0  0  0  0  0  0  0  0
    1.2334   -2.8636    0.0000 O   0  0  0  0  0  0  0  0  0  0  0  0
    2.5995   -2.4976    0.0000 C   0  0  0  0  0  0  0  0  0  0  0  0
    3.4655   -1.9976    0.0000 O   0  0  0  0  0  0  0  0  0  0  0  0
    4.3315   -2.4976    0.0000 C   0  0  0  0  0  0  0  0  0  0  0  0
    5.1983   -1.9988    0.0000 C   0  0  0  0  0  0  0  0  0  0  0  0
    6.0665   -2.4951    0.0000 C   0  0  0  0  0  0  0  0  0  0  0  0
    6.0680   -3.5003    0.0000 C   0  0  0  0  0  0  0  0  0  0  0  0
    5.2012   -4.0092    0.0000 C   0  0  0  0  0  0  0  0  0  0  0  0
    4.3330   -3.5028    0.0000 C   0  0  0  0  0  0  0  0  0  0  0  0
    3.4662   -4.0015    0.0000 C   0  0  0  0  0  0  0  0  0  0  0  0
    2.6009   -3.5002    0.0000 O   0  0  0  0  0  0  0  0  0  0  0  0
    3.4647   -5.0015    0.0000 C   0  0  0  0  0  0  0  0  0  0  0  0
    4.3359   -5.5028    0.0000 C   0  0  0  0  0  0  0  0  0  0  0  0
    4.3345   -6.5029    0.0000 C   0  0  0  0  0  0  0  0  0  0  0  0
    3.4706   -7.0066    0.0000 C   0  0  0  0  0  0  0  0  0  0  0  0
    2.5994   -6.5053    0.0000 C   0  0  0  0  0  0  0  0  0  0  0  0
    2.5920   -5.5002    0.0000 C   0  0  0  0  0  0  0  0  0  0  0  0
    1.7348    0.0000    0.0000 C   0  0  0  0  0  0  0  0  0  0  0  0
    1.7348    1.0051    0.0000 C   0  0  0  0  0  0  0  0  0  0  0  0
    1.7394    3.0126    0.0000 C   0  0  0  0  0  0  0  0  0  0  0  0
    2.6069    2.5152    0.0000 C   0  0  0  0  0  0  0  0  0  0  0  0
  1  2  1  0  0  0  0
  2 33  2  0  0  0  0
  2  3  1  0  0  0  0
  3  4  2  0  0  0  0
  4  5  1  0  0  0  0
  5  6  2  0  0  0  0
  6  7  1  0  0  0  0
  7 32  1  0  0  0  0
  7  8  1  0  0  0  0
  8  9  1  0  0  0  0
  9 10  1  0  0  0  0
 10 11  1  0  0  0  0
 11 12  1  0  0  0  0
 12 13  1  1  0  0  0
 12 14  1  0  0  0  0
 12 15  1  0  0  0  0
 15 16  1  0  0  0  0
 16 17  1  0  0  0  0
 17 22  2  0  0  0  0
 17 18  1  0  0  0  0
 18 19  2  0  0  0  0
 19 20  1  0  0  0  0
 20 21  2  0  0  0  0
 21 22  1  0  0  0  0
 22 23  1  0  0  0  0
 23 24  2  0  0  0  0
 23 25  1  0  0  0  0
 25 30  2  0  0  0  0
 25 26  1  0  0  0  0
 26 27  2  0  0  0  0
 27 28  1  0  0  0  0
 28 29  2  0  0  0  0
 29 30  1  0  0  0  0
 10 31  1  0  0  0  0
 31 32  1  0  0  0  0
  6 33  1  0  0  0  0
 33 34  1  0  0  0  0
M  END
> <ID>
1591239

$$$$
1591240
  -OEChem-05171416412D

 26 28  0     1  0  0  0  0  0999 V2000
    0.5015   -2.8635    0.0000 O   0  0  0  0  0  0  0  0  0  0  0  0
    0.0015   -1.9975    0.0000 C   0  0  1  0  0  0  0  0  0  0  0  0
   -0.4985   -1.1315    0.0000 H   0  0  0  0  0  0  0  0  0  0  0  0
   -0.8646   -2.4975    0.0000 C   0  0  0  0  0  0  0  0  0  0  0  0
   -0.8646   -3.4975    0.0000 O   0  0  0  0  0  0  0  0  0  0  0  0
   -1.7306   -3.9975    0.0000 C   0  0  0  0  0  0  0  0  0  0  0  0
   -1.7320   -4.9975    0.0000 C   0  0  0  0  0  0  0  0  0  0  0  0
   -2.5959   -5.5013    0.0000 C   0  0  0  0  0  0  0  0  0  0  0  0
   -3.4672   -5.0000    0.0000 C   0  0  0  0  0  0  0  0  0  0  0  0
   -3.4745   -3.9949    0.0000 C   0  0  0  0  0  0  0  0  0  0  0  0
   -2.6018   -3.4962    0.0000 C   0  0  0  0  0  0  0  0  0  0  0  0
   -2.6003   -2.4962    0.0000 C   0  0  0  0  0  0  0  0  0  0  0  0
   -1.7336   -1.9975    0.0000 O   0  0  0  0  0  0  0  0  0  0  0  0
   -3.4656   -1.9949    0.0000 C   0  0  0  0  0  0  0  0  0  0  0  0
   -4.3354   -2.4987    0.0000 C   0  0  0  0  0  0  0  0  0  0  0  0
   -5.2007   -1.9975    0.0000 C   0  0  0  0  0  0  0  0  0  0  0  0
   -5.2051   -0.9974    0.0000 C   0  0  0  0  0  0  0  0  0  0  0  0
   -4.3353   -0.4936    0.0000 C   0  0  0  0  0  0  0  0  0  0  0  0
   -3.4611   -0.9897    0.0000 C   0  0  0  0  0  0  0  0  0  0  0  0
    0.8675   -1.4975    0.0000 C   0  0  0  0  0  0  0  0  0  0  0  0
    0.8675   -0.4975    0.0000 N   0  0  0  0  0  0  0  0  0  0  0  0
    0.0000    0.0000    0.0000 C   0  0  0  0  0  0  0  0  0  0  0  0
   -0.0000    1.0052    0.0000 C   0  0  0  0  0  0  0  0  0  0  0  0
    0.8675    1.5129    0.0000 O   0  0  0  0  0  0  0  0  0  0  0  0
    1.7350    1.0052    0.0000 C   0  0  0  0  0  0  0  0  0  0  0  0
    1.7350    0.0000    0.0000 C   0  0  0  0  0  0  0  0  0  0  0  0
  1  2  1  0  0  0  0
  2  3  1  6  0  0  0
  2  4  1  0  0  0  0
  4  5  1  0  0  0  0
  5  6  1  0  0  0  0
  6 11  2  0  0  0  0
  6  7  1  0  0  0  0
  7  8  2  0  0  0  0
  8  9  1  0  0  0  0
  9 10  2  0  0  0  0
 10 11  1  0  0  0  0
 11 12  1  0  0  0  0
 12 13  2  0  0  0  0
 12 14  1  0  0  0  0
 14 19  2  0  0  0  0
 14 15  1  0  0  0  0
 15 16  2  0  0  0  0
 16 17  1  0  0  0  0
 17 18  2  0  0  0  0
 18 19  1  0  0  0  0
  2 20  1  0  0  0  0
 20 21  1  0  0  0  0
 21 26  1  0  0  0  0
 21 22  1  0  0  0  0
 22 23  1  0  0  0  0
 23 24  1  0  0  0  0
 24 25  1  0  0  0  0
 25 26  1  0  0  0  0
M  END
> <ID>
1591240

$$$$
1591241
  -OEChem-05171416412D

 39 43  0     1  0  0  0  0  0999 V2000
    1.2334    3.8786    0.0000 O   0  0  0  0  0  0  0  0  0  0  0  0
    1.7334    3.0126    0.0000 C   0  0  1  0  0  0  0  0  0  0  0  0
    2.2334    2.1466    0.0000 H   0  0  0  0  0  0  0  0  0  0  0  0
    2.5995    3.5126    0.0000 C   0  0  0  0  0  0  0  0  0  0  0  0
    2.5995    4.5126    0.0000 O   0  0  0  0  0  0  0  0  0  0  0  0
    3.4655    5.0126    0.0000 C   0  0  0  0  0  0  0  0  0  0  0  0
    3.4669    6.0126    0.0000 C   0  0  0  0  0  0  0  0  0  0  0  0
    4.3308    6.5164    0.0000 C   0  0  0  0  0  0  0  0  0  0  0  0
    5.2021    6.0151    0.0000 C   0  0  0  0  0  0  0  0  0  0  0  0
    5.2094    5.0100    0.0000 C   0  0  0  0  0  0  0  0  0  0  0  0
    4.3367    4.5113    0.0000 C   0  0  0  0  0  0  0  0  0  0  0  0
    4.3352    3.5113    0.0000 C   0  0  0  0  0  0  0  0  0  0  0  0
    3.4685    3.0126    0.0000 O   0  0  0  0  0  0  0  0  0  0  0  0
    5.2005    3.0100    0.0000 C   0  0  0  0  0  0  0  0  0  0  0  0
    5.1990    2.0100    0.0000 C   0  0  0  0  0  0  0  0  0  0  0  0
    6.0643    1.5087    0.0000 C   0  0  0  0  0  0  0  0  0  0  0  0
    6.9394    2.0082    0.0000 C   0  0  0  0  0  0  0  0  0  0  0  0
    7.8089    1.5029    0.0000 C   0  0  0  0  0  0  0  0  0  0  0  0
    7.8032    0.4980    0.0000 C   0  0  0  0  0  0  0  0  0  0  0  0
    6.9357    0.0005    0.0000 C   0  0  0  0  0  0  0  0  0  0  0  0
    6.9281   -1.0011    0.0000 C   0  0  0  0  0  0  0  0  0  0  0  0
    6.0609   -1.5002    0.0000 C   0  0  0  0  0  0  0  0  0  0  0  0
    5.1921   -0.9938    0.0000 C   0  0  0  0  0  0  0  0  0  0  0  0
    5.1904    0.0118    0.0000 C   0  0  0  0  0  0  0  0  0  0  0  0
    6.0662    0.5058    0.0000 C   0  0  0  0  0  0  0  0  0  0  0  0
    0.8674    2.5126    0.0000 C   0  0  0  0  0  0  0  0  0  0  0  0
    0.8674    1.5126    0.0000 N   0  0  0  0  0  0  0  0  0  0  0  0
    0.0000    1.0051    0.0000 C   0  0  0  0  0  0  0  0  0  0  0  0
    0.0000    0.0000    0.0000 C   0  0  0  0  0  0  0  0  0  0  0  0
    0.8674   -0.4976    0.0000 N   0  0  0  0  0  0  0  0  0  0  0  0
    1.7348    0.0000    0.0000 C   0  0  0  0  0  0  0  0  0  0  0  0
    1.7348    1.0051    0.0000 C   0  0  0  0  0  0  0  0  0  0  0  0
    0.8674   -1.4976    0.0000 C   0  0  0  0  0  0  0  0  0  0  0  0
    1.7394   -1.9976    0.0000 C   0  0  0  0  0  0  0  0  0  0  0  0
    1.7395   -2.9977    0.0000 C   0  0  0  0  0  0  0  0  0  0  0  0
    0.8763   -3.5027    0.0000 C   0  0  0  0  0  0  0  0  0  0  0  0
    0.8807   -4.5027    0.0000 F   0  0  0  0  0  0  0  0  0  0  0  0
    0.0043   -3.0027    0.0000 C   0  0  0  0  0  0  0  0  0  0  0  0
   -0.0046   -1.9976    0.0000 C   0  0  0  0  0  0  0  0  0  0  0  0
  1  2  1  0  0  0  0
  2  3  1  6  0  0  0
  2  4  1  0  0  0  0
  4  5  1  0  0  0  0
  5  6  1  0  0  0  0
  6 11  2  0  0  0  0
  6  7  1  0  0  0  0
  7  8  2  0  0  0  0
  8  9  1  0  0  0  0
  9 10  2  0  0  0  0
 10 11  1  0  0  0  0
 11 12  1  0  0  0  0
 12 13  2  0  0  0  0
 12 14  1  0  0  0  0
 14 15  1  0  0  0  0
 15 16  1  0  0  0  0
 16 25  2  0  0  0  0
 16 17  1  0  0  0  0
 17 18  2  0  0  0  0
 18 19  1  0  0  0  0
 19 20  2  0  0  0  0
 20 25  1  0  0  0  0
 20 21  1  0  0  0  0
 21 22  2  0  0  0  0
 22 23  1  0  0  0  0
 23 24  2  0  0  0  0
 24 25  1  0  0  0  0
  2 26  1  0  0  0  0
 26 27  1  0  0  0  0
 27 32  1  0  0  0  0
 27 28  1  0  0  0  0
 28 29  1  0  0  0  0
 29 30  1  0  0  0  0
 30 31  1  0  0  0  0
 31 32  1  0  0  0  0
 30 33  1  0  0  0  0
 33 39  2  0  0  0  0
 33 34  1  0  0  0  0
 34 35  2  0  0  0  0
 35 36  1  0  0  0  0
 36 37  1  0  0  0  0
 36 38  2  0  0  0  0
 38 39  1  0  0  0  0
M  END
> <ID>
1591241

$$$$
1591242
  -OEChem-05171416412D

 26 28  0     1  0  0  0  0  0999 V2000
    0.5015   -2.8635    0.0000 O   0  0  0  0  0  0  0  0  0  0  0  0
    0.0015   -1.9975    0.0000 C   0  0  1  0  0  0  0  0  0  0  0  0
   -0.4985   -1.1315    0.0000 H   0  0  0  0  0  0  0  0  0  0  0  0
   -0.8646   -2.4975    0.0000 C   0  0  0  0  0  0  0  0  0  0  0  0
   -0.8646   -3.4975    0.0000 O   0  0  0  0  0  0  0  0  0  0  0  0
   -1.7306   -3.9975    0.0000 C   0  0  0  0  0  0  0  0  0  0  0  0
   -1.7276   -5.0027    0.0000 C   0  0  0  0  0  0  0  0  0  0  0  0
   -2.5936   -5.5028    0.0000 C   0  0  0  0  0  0  0  0  0  0  0  0
   -3.4626   -5.0078    0.0000 C   0  0  0  0  0  0  0  0  0  0  0  0
   -3.4656   -4.0026    0.0000 C   0  0  0  0  0  0  0  0  0  0  0  0
   -2.5996   -3.4924    0.0000 C   0  0  0  0  0  0  0  0  0  0  0  0
   -4.3264   -5.5116    0.0000 C   0  0  0  0  0  0  0  0  0  0  0  0
   -5.1946   -5.0154    0.0000 O   0  0  0  0  0  0  0  0  0  0  0  0
   -4.3220   -6.5116    0.0000 C   0  0  0  0  0  0  0  0  0  0  0  0
   -3.4478   -7.0078    0.0000 C   0  0  0  0  0  0  0  0  0  0  0  0
   -3.4434   -8.0078    0.0000 C   0  0  0  0  0  0  0  0  0  0  0  0
   -4.3042   -8.5167    0.0000 C   0  0  0  0  0  0  0  0  0  0  0  0
   -5.1784   -8.0205    0.0000 C   0  0  0  0  0  0  0  0  0  0  0  0
   -5.1918   -7.0154    0.0000 C   0  0  0  0  0  0  0  0  0  0  0  0
    0.8675   -1.4975    0.0000 C   0  0  0  0  0  0  0  0  0  0  0  0
    0.8675   -0.4975    0.0000 N   0  0  0  0  0  0  0  0  0  0  0  0
    0.0000    0.0000    0.0000 C   0  0  0  0  0  0  0  0  0  0  0  0
   -0.0000    1.0052    0.0000 C   0  0  0  0  0  0  0  0  0  0  0  0
    0.8675    1.5129    0.0000 O   0  0  0  0  0  0  0  0  0  0  0  0
    1.7350    1.0052    0.0000 C   0  0  0  0  0  0  0  0  0  0  0  0
    1.7350    0.0000    0.0000 C   0  0  0  0  0  0  0  0  0  0  0  0
  1  2  1  0  0  0  0
  2  3  1  6  0  0  0
  2  4  1  0  0  0  0
  4  5  1  0  0  0  0
  5  6  1  0  0  0  0
  6 11  2  0  0  0  0
  6  7  1  0  0  0  0
  7  8  2  0  0  0  0
  8  9  1  0  0  0  0
  9 10  2  0  0  0  0
 10 11  1  0  0  0  0
  9 12  1  0  0  0  0
 12 13  2  0  0  0  0
 12 14  1  0  0  0  0
 14 19  2  0  0  0  0
 14 15  1  0  0  0  0
 15 16  2  0  0  0  0
 16 17  1  0  0  0  0
 17 18  2  0  0  0  0
 18 19  1  0  0  0  0
  2 20  1  0  0  0  0
 20 21  1  0  0  0  0
 21 26  1  0  0  0  0
 21 22  1  0  0  0  0
 22 23  1  0  0  0  0
 23 24  1  0  0  0  0
 24 25  1  0  0  0  0
 25 26  1  0  0  0  0
M  END
> <ID>
1591242

$$$$
1591243
  -OEChem-05171416412D

 26 28  0     1  0  0  0  0  0999 V2000
    0.3660    4.3764    0.0000 O   0  0  0  0  0  0  0  0  0  0  0  0
    0.8660    3.5104    0.0000 C   0  0  1  0  0  0  0  0  0  0  0  0
    1.3660    2.6444    0.0000 H   0  0  0  0  0  0  0  0  0  0  0  0
    1.7321    4.0104    0.0000 C   0  0  0  0  0  0  0  0  0  0  0  0
    1.7321    5.0104    0.0000 O   0  0  0  0  0  0  0  0  0  0  0  0
    2.5981    5.5104    0.0000 C   0  0  0  0  0  0  0  0  0  0  0  0
    2.5951    6.5156    0.0000 C   0  0  0  0  0  0  0  0  0  0  0  0
    3.4611    7.0157    0.0000 C   0  0  0  0  0  0  0  0  0  0  0  0
    4.3301    6.5207    0.0000 C   0  0  0  0  0  0  0  0  0  0  0  0
    4.3331    5.5155    0.0000 C   0  0  0  0  0  0  0  0  0  0  0  0
    3.4671    5.0053    0.0000 C   0  0  0  0  0  0  0  0  0  0  0  0
    5.1939    7.0245    0.0000 C   0  0  0  0  0  0  0  0  0  0  0  0
    6.0621    6.5283    0.0000 O   0  0  0  0  0  0  0  0  0  0  0  0
    5.1895    8.0245    0.0000 C   0  0  0  0  0  0  0  0  0  0  0  0
    4.3153    8.5207    0.0000 C   0  0  0  0  0  0  0  0  0  0  0  0
    4.3109    9.5207    0.0000 C   0  0  0  0  0  0  0  0  0  0  0  0
    5.1717   10.0296    0.0000 C   0  0  0  0  0  0  0  0  0  0  0  0
    6.0459    9.5334    0.0000 C   0  0  0  0  0  0  0  0  0  0  0  0
    6.0593    8.5283    0.0000 C   0  0  0  0  0  0  0  0  0  0  0  0
   -0.0000    3.0104    0.0000 C   0  0  0  0  0  0  0  0  0  0  0  0
   -0.0000    2.0104    0.0000 N   0  0  0  0  0  0  0  0  0  0  0  0
   -0.8675    1.5027    0.0000 C   0  0  0  0  0  0  0  0  0  0  0  0
   -0.8675    0.4975    0.0000 C   0  0  0  0  0  0  0  0  0  0  0  0
    0.0000    0.0000    0.0000 C   0  0  0  0  0  0  0  0  0  0  0  0
    0.8675    0.4975    0.0000 C   0  0  0  0  0  0  0  0  0  0  0  0
    0.8675    1.5027    0.0000 C   0  0  0  0  0  0  0  0  0  0  0  0
  1  2  1  0  0  0  0
  2  3  1  6  0  0  0
  2  4  1  0  0  0  0
  4  5  1  0  0  0  0
  5  6  1  0  0  0  0
  6 11  2  0  0  0  0
  6  7  1  0  0  0  0
  7  8  2  0  0  0  0
  8  9  1  0  0  0  0
  9 10  2  0  0  0  0
 10 11  1  0  0  0  0
  9 12  1  0  0  0  0
 12 13  2  0  0  0  0
 12 14  1  0  0  0  0
 14 19  2  0  0  0  0
 14 15  1  0  0  0  0
 15 16  2  0  0  0  0
 16 17  1  0  0  0  0
 17 18  2  0  0  0  0
 18 19  1  0  0  0  0
  2 20  1  0  0  0  0
 20 21  1  0  0  0  0
 21 26  1  0  0  0  0
 21 22  1  0  0  0  0
 22 23  1  0  0  0  0
 23 24  1  0  0  0  0
 24 25  1  0  0  0  0
 25 26  1  0  0  0  0
M  END
> <ID>
1591243

$$$$
1591244
  -OEChem-05171416412D

 23 23  0     1  0  0  0  0  0999 V2000
    2.6054    3.4976    0.0000 C   0  0  0  0  0  0  0  0  0  0  0  0
    1.7379    3.0001    0.0000 C   0  0  0  0  0  0  0  0  0  0  0  0
    1.7350    2.0001    0.0000 C   0  0  0  0  0  0  0  0  0  0  0  0
    2.5995    1.4976    0.0000 O   0  0  0  0  0  0  0  0  0  0  0  0
    0.8675    1.5027    0.0000 C   0  0  0  0  0  0  0  0  0  0  0  0
    0.8675    0.4975    0.0000 C   0  0  0  0  0  0  0  0  0  0  0  0
    0.0000    0.0000    0.0000 C   0  0  0  0  0  0  0  0  0  0  0  0
   -0.8675    0.4975    0.0000 C   0  0  0  0  0  0  0  0  0  0  0  0
   -1.7328   -0.0038    0.0000 O   0  0  0  0  0  0  0  0  0  0  0  0
   -1.7313   -1.0038    0.0000 C   0  0  0  0  0  0  0  0  0  0  0  0
   -2.5966   -1.5050    0.0000 C   0  0  2  0  0  0  0  0  0  0  0  0
   -2.0954   -2.3703    0.0000 H   0  0  0  0  0  0  0  0  0  0  0  0
   -3.0979   -0.6397    0.0000 O   0  0  0  0  0  0  0  0  0  0  0  0
   -3.4619   -2.0063    0.0000 C   0  0  0  0  0  0  0  0  0  0  0  0
   -3.4605   -3.0063    0.0000 N   0  0  0  0  0  0  0  0  0  0  0  0
   -2.5937   -3.5050    0.0000 C   0  0  0  0  0  0  0  0  0  0  0  0
   -1.7284   -3.0038    0.0000 C   0  0  0  0  0  0  0  0  0  0  0  0
   -2.5923   -4.5050    0.0000 C   0  0  0  0  0  0  0  0  0  0  0  0
   -4.3258   -3.5075    0.0000 C   0  0  0  0  0  0  0  0  0  0  0  0
   -4.3243   -4.5075    0.0000 C   0  0  0  0  0  0  0  0  0  0  0  0
   -5.1925   -3.0088    0.0000 C   0  0  0  0  0  0  0  0  0  0  0  0
   -0.8675    1.5027    0.0000 C   0  0  0  0  0  0  0  0  0  0  0  0
    0.0000    2.0104    0.0000 C   0  0  0  0  0  0  0  0  0  0  0  0
  1  2  1  0  0  0  0
  2  3  1  0  0  0  0
  3  4  2  0  0  0  0
  3  5  1  0  0  0  0
  5 23  2  0  0  0  0
  5  6  1  0  0  0  0
  6  7  2  0  0  0  0
  7  8  1  0  0  0  0
  8  9  1  0  0  0  0
  9 10  1  0  0  0  0
 10 11  1  0  0  0  0
 11 12  1  6  0  0  0
 11 13  1  0  0  0  0
 11 14  1  0  0  0  0
 14 15  1  0  0  0  0
 15 16  1  0  0  0  0
 16 17  1  0  0  0  0
 16 18  1  0  0  0  0
 15 19  1  0  0  0  0
 19 20  1  0  0  0  0
 19 21  1  0  0  0  0
  8 22  2  0  0  0  0
 22 23  1  0  0  0  0
M  END
> <ID>
1591244

$$$$
1591245
  -OEChem-05171416412D

 33 36  0     1  0  0  0  0  0999 V2000
    1.2334    3.8786    0.0000 O   0  0  0  0  0  0  0  0  0  0  0  0
    1.7334    3.0126    0.0000 C   0  0  1  0  0  0  0  0  0  0  0  0
    2.2334    2.1466    0.0000 H   0  0  0  0  0  0  0  0  0  0  0  0
    2.5995    3.5126    0.0000 C   0  0  0  0  0  0  0  0  0  0  0  0
    2.5995    4.5126    0.0000 O   0  0  0  0  0  0  0  0  0  0  0  0
    3.4655    5.0126    0.0000 C   0  0  0  0  0  0  0  0  0  0  0  0
    4.3345    4.5074    0.0000 C   0  0  0  0  0  0  0  0  0  0  0  0
    5.2006    5.0074    0.0000 C   0  0  0  0  0  0  0  0  0  0  0  0
    5.2064    6.0074    0.0000 C   0  0  0  0  0  0  0  0  0  0  0  0
    4.3374    6.5126    0.0000 C   0  0  0  0  0  0  0  0  0  0  0  0
    3.4625    6.0177    0.0000 C   0  0  0  0  0  0  0  0  0  0  0  0
    4.3433    7.5126    0.0000 C   0  0  0  0  0  0  0  0  0  0  0  0
    5.2123    8.0075    0.0000 O   0  0  0  0  0  0  0  0  0  0  0  0
    3.4802    8.0177    0.0000 C   0  0  0  0  0  0  0  0  0  0  0  0
    2.6082    7.5176    0.0000 C   0  0  0  0  0  0  0  0  0  0  0  0
    1.7451    8.0227    0.0000 C   0  0  0  0  0  0  0  0  0  0  0  0
    1.7452    9.0227    0.0000 C   0  0  0  0  0  0  0  0  0  0  0  0
    2.6172    9.5228    0.0000 C   0  0  0  0  0  0  0  0  0  0  0  0
    3.4891    9.0228    0.0000 C   0  0  0  0  0  0  0  0  0  0  0  0
    0.8674    2.5126    0.0000 C   0  0  0  0  0  0  0  0  0  0  0  0
    0.8674    1.5126    0.0000 N   0  0  0  0  0  0  0  0  0  0  0  0
    0.0000    1.0051    0.0000 C   0  0  0  0  0  0  0  0  0  0  0  0
    0.0000    0.0000    0.0000 C   0  0  0  0  0  0  0  0  0  0  0  0
    0.8674   -0.4976    0.0000 N   0  0  0  0  0  0  0  0  0  0  0  0
    1.7348    0.0000    0.0000 C   0  0  0  0  0  0  0  0  0  0  0  0
    1.7348    1.0051    0.0000 C   0  0  0  0  0  0  0  0  0  0  0  0
    0.8674   -1.4976    0.0000 C   0  0  0  0  0  0  0  0  0  0  0  0
    1.7394   -1.9976    0.0000 C   0  0  0  0  0  0  0  0  0  0  0  0
    1.7395   -2.9977    0.0000 C   0  0  0  0  0  0  0  0  0  0  0  0
    0.8763   -3.5027    0.0000 C   0  0  0  0  0  0  0  0  0  0  0  0
    0.8807   -4.5027    0.0000 F   0  0  0  0  0  0  0  0  0  0  0  0
    0.0043   -3.0027    0.0000 C   0  0  0  0  0  0  0  0  0  0  0  0
   -0.0046   -1.9976    0.0000 C   0  0  0  0  0  0  0  0  0  0  0  0
  1  2  1  0  0  0  0
  2  3  1  6  0  0  0
  2  4  1  0  0  0  0
  4  5  1  0  0  0  0
  5  6  1  0  0  0  0
  6 11  2  0  0  0  0
  6  7  1  0  0  0  0
  7  8  2  0  0  0  0
  8  9  1  0  0  0  0
  9 10  2  0  0  0  0
 10 11  1  0  0  0  0
 10 12  1  0  0  0  0
 12 13  2  0  0  0  0
 12 14  1  0  0  0  0
 14 19  2  0  0  0  0
 14 15  1  0  0  0  0
 15 16  2  0  0  0  0
 16 17  1  0  0  0  0
 17 18  2  0  0  0  0
 18 19  1  0  0  0  0
  2 20  1  0  0  0  0
 20 21  1  0  0  0  0
 21 26  1  0  0  0  0
 21 22  1  0  0  0  0
 22 23  1  0  0  0  0
 23 24  1  0  0  0  0
 24 25  1  0  0  0  0
 25 26  1  0  0  0  0
 24 27  1  0  0  0  0
 27 33  2  0  0  0  0
 27 28  1  0  0  0  0
 28 29  2  0  0  0  0
 29 30  1  0  0  0  0
 30 31  1  0  0  0  0
 30 32  2  0  0  0  0
 32 33  1  0  0  0  0
M  END
> <ID>
1591245

$$$$
1591246
  -OEChem-05171416412D

 34 37  0     1  0  0  0  0  0999 V2000
    2.5935    4.5228    0.0000 C   0  0  0  0  0  0  0  0  0  0  0  0
    1.7305    4.0177    0.0000 C   0  0  0  0  0  0  0  0  0  0  0  0
    0.8585    4.5177    0.0000 C   0  0  0  0  0  0  0  0  0  0  0  0
   -0.0047    4.0127    0.0000 C   0  0  0  0  0  0  0  0  0  0  0  0
   -0.0046    3.0126    0.0000 C   0  0  0  0  0  0  0  0  0  0  0  0
    0.8674    2.5126    0.0000 C   0  0  0  0  0  0  0  0  0  0  0  0
    0.8674    1.5126    0.0000 N   0  0  0  0  0  0  0  0  0  0  0  0
    0.0000    1.0051    0.0000 C   0  0  0  0  0  0  0  0  0  0  0  0
    0.0000    0.0000    0.0000 C   0  0  0  0  0  0  0  0  0  0  0  0
    0.8674   -0.4976    0.0000 N   0  0  0  0  0  0  0  0  0  0  0  0
    0.8674   -1.4976    0.0000 C   0  0  0  0  0  0  0  0  0  0  0  0
    1.7334   -1.9976    0.0000 C   0  0  1  0  0  0  0  0  0  0  0  0
    2.2334   -1.1316    0.0000 H   0  0  0  0  0  0  0  0  0  0  0  0
    1.2334   -2.8636    0.0000 O   0  0  0  0  0  0  0  0  0  0  0  0
    2.5995   -2.4976    0.0000 C   0  0  0  0  0  0  0  0  0  0  0  0
    3.4655   -1.9976    0.0000 O   0  0  0  0  0  0  0  0  0  0  0  0
    4.3315   -2.4976    0.0000 C   0  0  0  0  0  0  0  0  0  0  0  0
    4.3285   -3.5028    0.0000 C   0  0  0  0  0  0  0  0  0  0  0  0
    5.1946   -4.0029    0.0000 C   0  0  0  0  0  0  0  0  0  0  0  0
    6.0635   -3.5079    0.0000 C   0  0  0  0  0  0  0  0  0  0  0  0
    6.0665   -2.5027    0.0000 C   0  0  0  0  0  0  0  0  0  0  0  0
    5.2005   -1.9925    0.0000 C   0  0  0  0  0  0  0  0  0  0  0  0
    6.9355   -2.0078    0.0000 C   0  0  0  0  0  0  0  0  0  0  0  0
    7.7985   -2.5129    0.0000 O   0  0  0  0  0  0  0  0  0  0  0  0
    6.9414   -1.0079    0.0000 C   0  0  0  0  0  0  0  0  0  0  0  0
    6.0723   -0.5027    0.0000 C   0  0  0  0  0  0  0  0  0  0  0  0
    6.0782    0.4973    0.0000 C   0  0  0  0  0  0  0  0  0  0  0  0
    6.9442    0.9973    0.0000 C   0  0  0  0  0  0  0  0  0  0  0  0
    7.8133    0.4921    0.0000 C   0  0  0  0  0  0  0  0  0  0  0  0
    7.8163   -0.5130    0.0000 C   0  0  0  0  0  0  0  0  0  0  0  0
    1.7348    0.0000    0.0000 C   0  0  0  0  0  0  0  0  0  0  0  0
    1.7348    1.0051    0.0000 C   0  0  0  0  0  0  0  0  0  0  0  0
    1.7394    3.0126    0.0000 C   0  0  0  0  0  0  0  0  0  0  0  0
    2.6069    2.5152    0.0000 C   0  0  0  0  0  0  0  0  0  0  0  0
  1  2  1  0  0  0  0
  2 33  2  0  0  0  0
  2  3  1  0  0  0  0
  3  4  2  0  0  0  0
  4  5  1  0  0  0  0
  5  6  2  0  0  0  0
  6  7  1  0  0  0  0
  7 32  1  0  0  0  0
  7  8  1  0  0  0  0
  8  9  1  0  0  0  0
  9 10  1  0  0  0  0
 10 11  1  0  0  0  0
 11 12  1  0  0  0  0
 12 13  1  1  0  0  0
 12 14  1  0  0  0  0
 12 15  1  0  0  0  0
 15 16  1  0  0  0  0
 16 17  1  0  0  0  0
 17 22  2  0  0  0  0
 17 18  1  0  0  0  0
 18 19  2  0  0  0  0
 19 20  1  0  0  0  0
 20 21  2  0  0  0  0
 21 22  1  0  0  0  0
 21 23  1  0  0  0  0
 23 24  2  0  0  0  0
 23 25  1  0  0  0  0
 25 30  2  0  0  0  0
 25 26  1  0  0  0  0
 26 27  2  0  0  0  0
 27 28  1  0  0  0  0
 28 29  2  0  0  0  0
 29 30  1  0  0  0  0
 10 31  1  0  0  0  0
 31 32  1  0  0  0  0
  6 33  1  0  0  0  0
 33 34  1  0  0  0  0
M  END
> <ID>
1591246

$$$$
1591247
  -OEChem-05171416412D

 26 28  0     1  0  0  0  0  0999 V2000
    0.3660    4.3764    0.0000 O   0  0  0  0  0  0  0  0  0  0  0  0
    0.8660    3.5104    0.0000 C   0  0  1  0  0  0  0  0  0  0  0  0
    1.3660    2.6444    0.0000 H   0  0  0  0  0  0  0  0  0  0  0  0
    1.7321    4.0104    0.0000 C   0  0  0  0  0  0  0  0  0  0  0  0
    1.7321    5.0104    0.0000 O   0  0  0  0  0  0  0  0  0  0  0  0
    2.5981    5.5104    0.0000 C   0  0  0  0  0  0  0  0  0  0  0  0
    3.4671    5.0052    0.0000 C   0  0  0  0  0  0  0  0  0  0  0  0
    4.3332    5.5052    0.0000 C   0  0  0  0  0  0  0  0  0  0  0  0
    4.3390    6.5052    0.0000 C   0  0  0  0  0  0  0  0  0  0  0  0
    3.4700    7.0104    0.0000 C   0  0  0  0  0  0  0  0  0  0  0  0
    2.5951    6.5155    0.0000 C   0  0  0  0  0  0  0  0  0  0  0  0
    3.4759    8.0104    0.0000 C   0  0  0  0  0  0  0  0  0  0  0  0
    4.3449    8.5053    0.0000 O   0  0  0  0  0  0  0  0  0  0  0  0
    2.6128    8.5155    0.0000 C   0  0  0  0  0  0  0  0  0  0  0  0
    1.7408    8.0154    0.0000 C   0  0  0  0  0  0  0  0  0  0  0  0
    0.8777    8.5205    0.0000 C   0  0  0  0  0  0  0  0  0  0  0  0
    0.8778    9.5205    0.0000 C   0  0  0  0  0  0  0  0  0  0  0  0
    1.7498   10.0206    0.0000 C   0  0  0  0  0  0  0  0  0  0  0  0
    2.6217    9.5206    0.0000 C   0  0  0  0  0  0  0  0  0  0  0  0
   -0.0000    3.0104    0.0000 C   0  0  0  0  0  0  0  0  0  0  0  0
   -0.0000    2.0104    0.0000 N   0  0  0  0  0  0  0  0  0  0  0  0
   -0.8675    1.5027    0.0000 C   0  0  0  0  0  0  0  0  0  0  0  0
   -0.8675    0.4975    0.0000 C   0  0  0  0  0  0  0  0  0  0  0  0
    0.0000    0.0000    0.0000 C   0  0  0  0  0  0  0  0  0  0  0  0
    0.8675    0.4975    0.0000 C   0  0  0  0  0  0  0  0  0  0  0  0
    0.8675    1.5027    0.0000 C   0  0  0  0  0  0  0  0  0  0  0  0
  1  2  1  0  0  0  0
  2  3  1  6  0  0  0
  2  4  1  0  0  0  0
  4  5  1  0  0  0  0
  5  6  1  0  0  0  0
  6 11  2  0  0  0  0
  6  7  1  0  0  0  0
  7  8  2  0  0  0  0
  8  9  1  0  0  0  0
  9 10  2  0  0  0  0
 10 11  1  0  0  0  0
 10 12  1  0  0  0  0
 12 13  2  0  0  0  0
 12 14  1  0  0  0  0
 14 19  2  0  0  0  0
 14 15  1  0  0  0  0
 15 16  2  0  0  0  0
 16 17  1  0  0  0  0
 17 18  2  0  0  0  0
 18 19  1  0  0  0  0
  2 20  1  0  0  0  0
 20 21  1  0  0  0  0
 21 26  1  0  0  0  0
 21 22  1  0  0  0  0
 22 23  1  0  0  0  0
 23 24  1  0  0  0  0
 24 25  1  0  0  0  0
 25 26  1  0  0  0  0
M  END
> <ID>
1591247

$$$$
1591248
  -OEChem-05171416412D

 33 36  0     1  0  0  0  0  0999 V2000
   -0.8699    2.5113    0.0000 C   0  0  0  0  0  0  0  0  0  0  0  0
   -0.0046    3.0126    0.0000 C   0  0  0  0  0  0  0  0  0  0  0  0
   -0.0047    4.0127    0.0000 C   0  0  0  0  0  0  0  0  0  0  0  0
    0.8585    4.5177    0.0000 C   0  0  0  0  0  0  0  0  0  0  0  0
    1.7305    4.0177    0.0000 C   0  0  0  0  0  0  0  0  0  0  0  0
    1.7394    3.0126    0.0000 C   0  0  0  0  0  0  0  0  0  0  0  0
    0.8674    2.5126    0.0000 C   0  0  0  0  0  0  0  0  0  0  0  0
    0.8674    1.5126    0.0000 N   0  0  0  0  0  0  0  0  0  0  0  0
    0.0000    1.0051    0.0000 C   0  0  0  0  0  0  0  0  0  0  0  0
    0.0000    0.0000    0.0000 C   0  0  0  0  0  0  0  0  0  0  0  0
    0.8674   -0.4976    0.0000 N   0  0  0  0  0  0  0  0  0  0  0  0
    0.8674   -1.4976    0.0000 C   0  0  0  0  0  0  0  0  0  0  0  0
    1.7334   -1.9976    0.0000 C   0  0  1  0  0  0  0  0  0  0  0  0
    2.2334   -1.1316    0.0000 H   0  0  0  0  0  0  0  0  0  0  0  0
    1.2334   -2.8636    0.0000 O   0  0  0  0  0  0  0  0  0  0  0  0
    2.5995   -2.4976    0.0000 C   0  0  0  0  0  0  0  0  0  0  0  0
    3.4655   -1.9976    0.0000 O   0  0  0  0  0  0  0  0  0  0  0  0
    4.3315   -2.4976    0.0000 C   0  0  0  0  0  0  0  0  0  0  0  0
    4.3285   -3.5028    0.0000 C   0  0  0  0  0  0  0  0  0  0  0  0
    5.1946   -4.0029    0.0000 C   0  0  0  0  0  0  0  0  0  0  0  0
    6.0635   -3.5079    0.0000 C   0  0  0  0  0  0  0  0  0  0  0  0
    6.0665   -2.5027    0.0000 C   0  0  0  0  0  0  0  0  0  0  0  0
    5.2005   -1.9925    0.0000 C   0  0  0  0  0  0  0  0  0  0  0  0
    6.9355   -2.0078    0.0000 C   0  0  0  0  0  0  0  0  0  0  0  0
    7.7985   -2.5129    0.0000 O   0  0  0  0  0  0  0  0  0  0  0  0
    6.9414   -1.0079    0.0000 C   0  0  0  0  0  0  0  0  0  0  0  0
    6.0723   -0.5027    0.0000 C   0  0  0  0  0  0  0  0  0  0  0  0
    6.0782    0.4973    0.0000 C   0  0  0  0  0  0  0  0  0  0  0  0
    6.9442    0.9973    0.0000 C   0  0  0  0  0  0  0  0  0  0  0  0
    7.8133    0.4921    0.0000 C   0  0  0  0  0  0  0  0  0  0  0  0
    7.8163   -0.5130    0.0000 C   0  0  0  0  0  0  0  0  0  0  0  0
    1.7348    0.0000    0.0000 C   0  0  0  0  0  0  0  0  0  0  0  0
    1.7348    1.0051    0.0000 C   0  0  0  0  0  0  0  0  0  0  0  0
  1  2  1  0  0  0  0
  2  7  2  0  0  0  0
  2  3  1  0  0  0  0
  3  4  2  0  0  0  0
  4  5  1  0  0  0  0
  5  6  2  0  0  0  0
  6  7  1  0  0  0  0
  7  8  1  0  0  0  0
  8 33  1  0  0  0  0
  8  9  1  0  0  0  0
  9 10  1  0  0  0  0
 10 11  1  0  0  0  0
 11 12  1  0  0  0  0
 12 13  1  0  0  0  0
 13 14  1  1  0  0  0
 13 15  1  0  0  0  0
 13 16  1  0  0  0  0
 16 17  1  0  0  0  0
 17 18  1  0  0  0  0
 18 23  2  0  0  0  0
 18 19  1  0  0  0  0
 19 20  2  0  0  0  0
 20 21  1  0  0  0  0
 21 22  2  0  0  0  0
 22 23  1  0  0  0  0
 22 24  1  0  0  0  0
 24 25  2  0  0  0  0
 24 26  1  0  0  0  0
 26 31  2  0  0  0  0
 26 27  1  0  0  0  0
 27 28  2  0  0  0  0
 28 29  1  0  0  0  0
 29 30  2  0  0  0  0
 30 31  1  0  0  0  0
 11 32  1  0  0  0  0
 32 33  1  0  0  0  0
M  END
> <ID>
1591248

$$$$
1591249
  -OEChem-05171416412D

 40 44  0     1  0  0  0  0  0999 V2000
    2.5935    4.5228    0.0000 C   0  0  0  0  0  0  0  0  0  0  0  0
    1.7305    4.0177    0.0000 C   0  0  0  0  0  0  0  0  0  0  0  0
    0.8585    4.5177    0.0000 C   0  0  0  0  0  0  0  0  0  0  0  0
   -0.0047    4.0127    0.0000 C   0  0  0  0  0  0  0  0  0  0  0  0
   -0.0046    3.0126    0.0000 C   0  0  0  0  0  0  0  0  0  0  0  0
    0.8674    2.5126    0.0000 C   0  0  0  0  0  0  0  0  0  0  0  0
    0.8674    1.5126    0.0000 N   0  0  0  0  0  0  0  0  0  0  0  0
    0.0000    1.0051    0.0000 C   0  0  0  0  0  0  0  0  0  0  0  0
    0.0000    0.0000    0.0000 C   0  0  0  0  0  0  0  0  0  0  0  0
    0.8674   -0.4976    0.0000 N   0  0  0  0  0  0  0  0  0  0  0  0
    0.8674   -1.4976    0.0000 C   0  0  0  0  0  0  0  0  0  0  0  0
    1.7334   -1.9976    0.0000 C   0  0  1  0  0  0  0  0  0  0  0  0
    2.2334   -1.1316    0.0000 H   0  0  0  0  0  0  0  0  0  0  0  0
    1.2334   -2.8636    0.0000 O   0  0  0  0  0  0  0  0  0  0  0  0
    2.5995   -2.4976    0.0000 C   0  0  0  0  0  0  0  0  0  0  0  0
    3.4655   -1.9976    0.0000 O   0  0  0  0  0  0  0  0  0  0  0  0
    4.3315   -2.4976    0.0000 C   0  0  0  0  0  0  0  0  0  0  0  0
    5.2005   -1.9924    0.0000 C   0  0  0  0  0  0  0  0  0  0  0  0
    6.0666   -2.4924    0.0000 C   0  0  0  0  0  0  0  0  0  0  0  0
    6.0725   -3.4924    0.0000 C   0  0  0  0  0  0  0  0  0  0  0  0
    5.2034   -3.9976    0.0000 C   0  0  0  0  0  0  0  0  0  0  0  0
    4.3285   -3.5027    0.0000 C   0  0  0  0  0  0  0  0  0  0  0  0
    6.9407   -3.9886    0.0000 C   0  0  0  0  0  0  0  0  0  0  0  0
    6.9451   -4.9886    0.0000 O   0  0  0  0  0  0  0  0  0  0  0  0
    7.8045   -3.4848    0.0000 C   0  0  0  0  0  0  0  0  0  0  0  0
    8.6727   -3.9810    0.0000 C   0  0  0  0  0  0  0  0  0  0  0  0
    9.5365   -3.4772    0.0000 C   0  0  0  0  0  0  0  0  0  0  0  0
    9.5356   -2.4695    0.0000 C   0  0  0  0  0  0  0  0  0  0  0  0
   10.4050   -1.9640    0.0000 C   0  0  0  0  0  0  0  0  0  0  0  0
   11.2753   -2.4663    0.0000 C   0  0  0  0  0  0  0  0  0  0  0  0
   11.2783   -3.4663    0.0000 C   0  0  0  0  0  0  0  0  0  0  0  0
   12.1449   -3.9687    0.0000 C   0  0  0  0  0  0  0  0  0  0  0  0
   12.1495   -4.9692    0.0000 C   0  0  0  0  0  0  0  0  0  0  0  0
   11.2794   -5.4735    0.0000 C   0  0  0  0  0  0  0  0  0  0  0  0
   10.4048   -4.9773    0.0000 C   0  0  0  0  0  0  0  0  0  0  0  0
   10.4089   -3.9718    0.0000 C   0  0  0  0  0  0  0  0  0  0  0  0
    1.7348    0.0000    0.0000 C   0  0  0  0  0  0  0  0  0  0  0  0
    1.7348    1.0051    0.0000 C   0  0  0  0  0  0  0  0  0  0  0  0
    1.7394    3.0126    0.0000 C   0  0  0  0  0  0  0  0  0  0  0  0
    2.6069    2.5152    0.0000 C   0  0  0  0  0  0  0  0  0  0  0  0
  1  2  1  0  0  0  0
  2 39  2  0  0  0  0
  2  3  1  0  0  0  0
  3  4  2  0  0  0  0
  4  5  1  0  0  0  0
  5  6  2  0  0  0  0
  6  7  1  0  0  0  0
  7 38  1  0  0  0  0
  7  8  1  0  0  0  0
  8  9  1  0  0  0  0
  9 10  1  0  0  0  0
 10 11  1  0  0  0  0
 11 12  1  0  0  0  0
 12 13  1  1  0  0  0
 12 14  1  0  0  0  0
 12 15  1  0  0  0  0
 15 16  1  0  0  0  0
 16 17  1  0  0  0  0
 17 22  2  0  0  0  0
 17 18  1  0  0  0  0
 18 19  2  0  0  0  0
 19 20  1  0  0  0  0
 20 21  2  0  0  0  0
 21 22  1  0  0  0  0
 20 23  1  0  0  0  0
 23 24  2  0  0  0  0
 23 25  1  0  0  0  0
 25 26  1  0  0  0  0
 26 27  1  0  0  0  0
 27 36  2  0  0  0  0
 27 28  1  0  0  0  0
 28 29  2  0  0  0  0
 29 30  1  0  0  0  0
 30 31  2  0  0  0  0
 31 36  1  0  0  0  0
 31 32  1  0  0  0  0
 32 33  2  0  0  0  0
 33 34  1  0  0  0  0
 34 35  2  0  0  0  0
 35 36  1  0  0  0  0
 10 37  1  0  0  0  0
 37 38  1  0  0  0  0
  6 39  1  0  0  0  0
 39 40  1  0  0  0  0
M  END
> <ID>
1591249

$$$$
1591250
  -OEChem-05171416412D

 39 43  0     1  0  0  0  0  0999 V2000
    1.2334    3.8786    0.0000 O   0  0  0  0  0  0  0  0  0  0  0  0
    1.7334    3.0126    0.0000 C   0  0  1  0  0  0  0  0  0  0  0  0
    2.2334    2.1466    0.0000 H   0  0  0  0  0  0  0  0  0  0  0  0
    2.5995    3.5126    0.0000 C   0  0  0  0  0  0  0  0  0  0  0  0
    2.5995    4.5126    0.0000 O   0  0  0  0  0  0  0  0  0  0  0  0
    3.4655    5.0126    0.0000 C   0  0  0  0  0  0  0  0  0  0  0  0
    3.4625    6.0178    0.0000 C   0  0  0  0  0  0  0  0  0  0  0  0
    4.3285    6.5179    0.0000 C   0  0  0  0  0  0  0  0  0  0  0  0
    5.1975    6.0229    0.0000 C   0  0  0  0  0  0  0  0  0  0  0  0
    5.2005    5.0177    0.0000 C   0  0  0  0  0  0  0  0  0  0  0  0
    4.3345    4.5075    0.0000 C   0  0  0  0  0  0  0  0  0  0  0  0
    6.0613    6.5267    0.0000 C   0  0  0  0  0  0  0  0  0  0  0  0
    6.9295    6.0305    0.0000 O   0  0  0  0  0  0  0  0  0  0  0  0
    6.0569    7.5267    0.0000 C   0  0  0  0  0  0  0  0  0  0  0  0
    6.9207    8.0305    0.0000 C   0  0  0  0  0  0  0  0  0  0  0  0
    6.9163    9.0305    0.0000 C   0  0  0  0  0  0  0  0  0  0  0  0
    6.0432    9.5335    0.0000 C   0  0  0  0  0  0  0  0  0  0  0  0
    6.0401   10.5392    0.0000 C   0  0  0  0  0  0  0  0  0  0  0  0
    6.9103   11.0418    0.0000 C   0  0  0  0  0  0  0  0  0  0  0  0
    7.7778   10.5444    0.0000 C   0  0  0  0  0  0  0  0  0  0  0  0
    8.6462   11.0437    0.0000 C   0  0  0  0  0  0  0  0  0  0  0  0
    9.5149   10.5474    0.0000 C   0  0  0  0  0  0  0  0  0  0  0  0
    9.5167    9.5417    0.0000 C   0  0  0  0  0  0  0  0  0  0  0  0
    8.6496    9.0324    0.0000 C   0  0  0  0  0  0  0  0  0  0  0  0
    7.7809    9.5387    0.0000 C   0  0  0  0  0  0  0  0  0  0  0  0
    0.8674    2.5126    0.0000 C   0  0  0  0  0  0  0  0  0  0  0  0
    0.8674    1.5126    0.0000 N   0  0  0  0  0  0  0  0  0  0  0  0
    0.0000    1.0051    0.0000 C   0  0  0  0  0  0  0  0  0  0  0  0
    0.0000    0.0000    0.0000 C   0  0  0  0  0  0  0  0  0  0  0  0
    0.8674   -0.4976    0.0000 N   0  0  0  0  0  0  0  0  0  0  0  0
    1.7348    0.0000    0.0000 C   0  0  0  0  0  0  0  0  0  0  0  0
    1.7348    1.0051    0.0000 C   0  0  0  0  0  0  0  0  0  0  0  0
    0.8674   -1.4976    0.0000 C   0  0  0  0  0  0  0  0  0  0  0  0
    1.7394   -1.9976    0.0000 C   0  0  0  0  0  0  0  0  0  0  0  0
    1.7395   -2.9977    0.0000 C   0  0  0  0  0  0  0  0  0  0  0  0
    0.8763   -3.5027    0.0000 C   0  0  0  0  0  0  0  0  0  0  0  0
    0.8807   -4.5027    0.0000 F   0  0  0  0  0  0  0  0  0  0  0  0
    0.0043   -3.0027    0.0000 C   0  0  0  0  0  0  0  0  0  0  0  0
   -0.0046   -1.9976    0.0000 C   0  0  0  0  0  0  0  0  0  0  0  0
  1  2  1  0  0  0  0
  2  3  1  6  0  0  0
  2  4  1  0  0  0  0
  4  5  1  0  0  0  0
  5  6  1  0  0  0  0
  6 11  2  0  0  0  0
  6  7  1  0  0  0  0
  7  8  2  0  0  0  0
  8  9  1  0  0  0  0
  9 10  2  0  0  0  0
 10 11  1  0  0  0  0
  9 12  1  0  0  0  0
 12 13  2  0  0  0  0
 12 14  1  0  0  0  0
 14 15  1  0  0  0  0
 15 16  1  0  0  0  0
 16 25  2  0  0  0  0
 16 17  1  0  0  0  0
 17 18  2  0  0  0  0
 18 19  1  0  0  0  0
 19 20  2  0  0  0  0
 20 25  1  0  0  0  0
 20 21  1  0  0  0  0
 21 22  2  0  0  0  0
 22 23  1  0  0  0  0
 23 24  2  0  0  0  0
 24 25  1  0  0  0  0
  2 26  1  0  0  0  0
 26 27  1  0  0  0  0
 27 32  1  0  0  0  0
 27 28  1  0  0  0  0
 28 29  1  0  0  0  0
 29 30  1  0  0  0  0
 30 31  1  0  0  0  0
 31 32  1  0  0  0  0
 30 33  1  0  0  0  0
 33 39  2  0  0  0  0
 33 34  1  0  0  0  0
 34 35  2  0  0  0  0
 35 36  1  0  0  0  0
 36 37  1  0  0  0  0
 36 38  2  0  0  0  0
 38 39  1  0  0  0  0
M  END
> <ID>
1591250

$$$$
1591251
  -OEChem-05171416412D

 39 43  0     1  0  0  0  0  0999 V2000
   -0.8699    2.5113    0.0000 C   0  0  0  0  0  0  0  0  0  0  0  0
   -0.0046    3.0126    0.0000 C   0  0  0  0  0  0  0  0  0  0  0  0
   -0.0047    4.0127    0.0000 C   0  0  0  0  0  0  0  0  0  0  0  0
    0.8585    4.5177    0.0000 C   0  0  0  0  0  0  0  0  0  0  0  0
    1.7305    4.0177    0.0000 C   0  0  0  0  0  0  0  0  0  0  0  0
    1.7394    3.0126    0.0000 C   0  0  0  0  0  0  0  0  0  0  0  0
    0.8674    2.5126    0.0000 C   0  0  0  0  0  0  0  0  0  0  0  0
    0.8674    1.5126    0.0000 N   0  0  0  0  0  0  0  0  0  0  0  0
    0.0000    1.0051    0.0000 C   0  0  0  0  0  0  0  0  0  0  0  0
    0.0000    0.0000    0.0000 C   0  0  0  0  0  0  0  0  0  0  0  0
    0.8674   -0.4976    0.0000 N   0  0  0  0  0  0  0  0  0  0  0  0
    0.8674   -1.4976    0.0000 C   0  0  0  0  0  0  0  0  0  0  0  0
    1.7334   -1.9976    0.0000 C   0  0  1  0  0  0  0  0  0  0  0  0
    2.2334   -1.1316    0.0000 H   0  0  0  0  0  0  0  0  0  0  0  0
    1.2334   -2.8636    0.0000 O   0  0  0  0  0  0  0  0  0  0  0  0
    2.5995   -2.4976    0.0000 C   0  0  0  0  0  0  0  0  0  0  0  0
    3.4655   -1.9976    0.0000 O   0  0  0  0  0  0  0  0  0  0  0  0
    4.3315   -2.4976    0.0000 C   0  0  0  0  0  0  0  0  0  0  0  0
    5.2005   -1.9924    0.0000 C   0  0  0  0  0  0  0  0  0  0  0  0
    6.0666   -2.4924    0.0000 C   0  0  0  0  0  0  0  0  0  0  0  0
    6.0725   -3.4924    0.0000 C   0  0  0  0  0  0  0  0  0  0  0  0
    5.2034   -3.9976    0.0000 C   0  0  0  0  0  0  0  0  0  0  0  0
    4.3285   -3.5027    0.0000 C   0  0  0  0  0  0  0  0  0  0  0  0
    6.9407   -3.9886    0.0000 C   0  0  0  0  0  0  0  0  0  0  0  0
    6.9451   -4.9886    0.0000 O   0  0  0  0  0  0  0  0  0  0  0  0
    7.8045   -3.4848    0.0000 C   0  0  0  0  0  0  0  0  0  0  0  0
    8.6727   -3.9810    0.0000 C   0  0  0  0  0  0  0  0  0  0  0  0
    9.5365   -3.4772    0.0000 C   0  0  0  0  0  0  0  0  0  0  0  0
    9.5356   -2.4695    0.0000 C   0  0  0  0  0  0  0  0  0  0  0  0
   10.4050   -1.9640    0.0000 C   0  0  0  0  0  0  0  0  0  0  0  0
   11.2753   -2.4663    0.0000 C   0  0  0  0  0  0  0  0  0  0  0  0
   11.2783   -3.4663    0.0000 C   0  0  0  0  0  0  0  0  0  0  0  0
   12.1449   -3.9687    0.0000 C   0  0  0  0  0  0  0  0  0  0  0  0
   12.1495   -4.9692    0.0000 C   0  0  0  0  0  0  0  0  0  0  0  0
   11.2794   -5.4735    0.0000 C   0  0  0  0  0  0  0  0  0  0  0  0
   10.4048   -4.9773    0.0000 C   0  0  0  0  0  0  0  0  0  0  0  0
   10.4089   -3.9718    0.0000 C   0  0  0  0  0  0  0  0  0  0  0  0
    1.7348    0.0000    0.0000 C   0  0  0  0  0  0  0  0  0  0  0  0
    1.7348    1.0051    0.0000 C   0  0  0  0  0  0  0  0  0  0  0  0
  1  2  1  0  0  0  0
  2  7  2  0  0  0  0
  2  3  1  0  0  0  0
  3  4  2  0  0  0  0
  4  5  1  0  0  0  0
  5  6  2  0  0  0  0
  6  7  1  0  0  0  0
  7  8  1  0  0  0  0
  8 39  1  0  0  0  0
  8  9  1  0  0  0  0
  9 10  1  0  0  0  0
 10 11  1  0  0  0  0
 11 12  1  0  0  0  0
 12 13  1  0  0  0  0
 13 14  1  1  0  0  0
 13 15  1  0  0  0  0
 13 16  1  0  0  0  0
 16 17  1  0  0  0  0
 17 18  1  0  0  0  0
 18 23  2  0  0  0  0
 18 19  1  0  0  0  0
 19 20  2  0  0  0  0
 20 21  1  0  0  0  0
 21 22  2  0  0  0  0
 22 23  1  0  0  0  0
 21 24  1  0  0  0  0
 24 25  2  0  0  0  0
 24 26  1  0  0  0  0
 26 27  1  0  0  0  0
 27 28  1  0  0  0  0
 28 37  2  0  0  0  0
 28 29  1  0  0  0  0
 29 30  2  0  0  0  0
 30 31  1  0  0  0  0
 31 32  2  0  0  0  0
 32 37  1  0  0  0  0
 32 33  1  0  0  0  0
 33 34  2  0  0  0  0
 34 35  1  0  0  0  0
 35 36  2  0  0  0  0
 36 37  1  0  0  0  0
 11 38  1  0  0  0  0
 38 39  1  0  0  0  0
M  END
> <ID>
1591251

$$$$
1591252
  -OEChem-05171416412D

 40 44  0     1  0  0  0  0  0999 V2000
    2.5935    4.5228    0.0000 C   0  0  0  0  0  0  0  0  0  0  0  0
    1.7305    4.0177    0.0000 C   0  0  0  0  0  0  0  0  0  0  0  0
    0.8585    4.5177    0.0000 C   0  0  0  0  0  0  0  0  0  0  0  0
   -0.0047    4.0127    0.0000 C   0  0  0  0  0  0  0  0  0  0  0  0
   -0.0046    3.0126    0.0000 C   0  0  0  0  0  0  0  0  0  0  0  0
    0.8674    2.5126    0.0000 C   0  0  0  0  0  0  0  0  0  0  0  0
    0.8674    1.5126    0.0000 N   0  0  0  0  0  0  0  0  0  0  0  0
    0.0000    1.0051    0.0000 C   0  0  0  0  0  0  0  0  0  0  0  0
    0.0000    0.0000    0.0000 C   0  0  0  0  0  0  0  0  0  0  0  0
    0.8674   -0.4976    0.0000 N   0  0  0  0  0  0  0  0  0  0  0  0
    0.8674   -1.4976    0.0000 C   0  0  0  0  0  0  0  0  0  0  0  0
    1.7334   -1.9976    0.0000 C   0  0  1  0  0  0  0  0  0  0  0  0
    2.2334   -1.1316    0.0000 H   0  0  0  0  0  0  0  0  0  0  0  0
    1.2334   -2.8636    0.0000 O   0  0  0  0  0  0  0  0  0  0  0  0
    2.5995   -2.4976    0.0000 C   0  0  0  0  0  0  0  0  0  0  0  0
    3.4655   -1.9976    0.0000 O   0  0  0  0  0  0  0  0  0  0  0  0
    4.3315   -2.4976    0.0000 C   0  0  0  0  0  0  0  0  0  0  0  0
    4.3285   -3.5028    0.0000 C   0  0  0  0  0  0  0  0  0  0  0  0
    5.1946   -4.0029    0.0000 C   0  0  0  0  0  0  0  0  0  0  0  0
    6.0635   -3.5079    0.0000 C   0  0  0  0  0  0  0  0  0  0  0  0
    6.0665   -2.5027    0.0000 C   0  0  0  0  0  0  0  0  0  0  0  0
    5.2005   -1.9925    0.0000 C   0  0  0  0  0  0  0  0  0  0  0  0
    6.9355   -2.0078    0.0000 C   0  0  0  0  0  0  0  0  0  0  0  0
    7.7985   -2.5129    0.0000 O   0  0  0  0  0  0  0  0  0  0  0  0
    6.9414   -1.0079    0.0000 C   0  0  0  0  0  0  0  0  0  0  0  0
    7.8103   -0.5130    0.0000 C   0  0  0  0  0  0  0  0  0  0  0  0
    7.8162    0.4870    0.0000 C   0  0  0  0  0  0  0  0  0  0  0  0
    6.9483    0.9990    0.0000 C   0  0  0  0  0  0  0  0  0  0  0  0
    6.9556    2.0046    0.0000 C   0  0  0  0  0  0  0  0  0  0  0  0
    7.8309    2.4983    0.0000 C   0  0  0  0  0  0  0  0  0  0  0  0
    8.6933    1.9919    0.0000 C   0  0  0  0  0  0  0  0  0  0  0  0
    9.5667    2.4823    0.0000 C   0  0  0  0  0  0  0  0  0  0  0  0
   10.4303    1.9771    0.0000 C   0  0  0  0  0  0  0  0  0  0  0  0
   10.4217    0.9714    0.0000 C   0  0  0  0  0  0  0  0  0  0  0  0
    9.5494    0.4710    0.0000 C   0  0  0  0  0  0  0  0  0  0  0  0
    8.6859    0.9863    0.0000 C   0  0  0  0  0  0  0  0  0  0  0  0
    1.7348    0.0000    0.0000 C   0  0  0  0  0  0  0  0  0  0  0  0
    1.7348    1.0051    0.0000 C   0  0  0  0  0  0  0  0  0  0  0  0
    1.7394    3.0126    0.0000 C   0  0  0  0  0  0  0  0  0  0  0  0
    2.6069    2.5152    0.0000 C   0  0  0  0  0  0  0  0  0  0  0  0
  1  2  1  0  0  0  0
  2 39  2  0  0  0  0
  2  3  1  0  0  0  0
  3  4  2  0  0  0  0
  4  5  1  0  0  0  0
  5  6  2  0  0  0  0
  6  7  1  0  0  0  0
  7 38  1  0  0  0  0
  7  8  1  0  0  0  0
  8  9  1  0  0  0  0
  9 10  1  0  0  0  0
 10 11  1  0  0  0  0
 11 12  1  0  0  0  0
 12 13  1  1  0  0  0
 12 14  1  0  0  0  0
 12 15  1  0  0  0  0
 15 16  1  0  0  0  0
 16 17  1  0  0  0  0
 17 22  2  0  0  0  0
 17 18  1  0  0  0  0
 18 19  2  0  0  0  0
 19 20  1  0  0  0  0
 20 21  2  0  0  0  0
 21 22  1  0  0  0  0
 21 23  1  0  0  0  0
 23 24  2  0  0  0  0
 23 25  1  0  0  0  0
 25 26  1  0  0  0  0
 26 27  1  0  0  0  0
 27 36  2  0  0  0  0
 27 28  1  0  0  0  0
 28 29  2  0  0  0  0
 29 30  1  0  0  0  0
 30 31  2  0  0  0  0
 31 36  1  0  0  0  0
 31 32  1  0  0  0  0
 32 33  2  0  0  0  0
 33 34  1  0  0  0  0
 34 35  2  0  0  0  0
 35 36  1  0  0  0  0
 10 37  1  0  0  0  0
 37 38  1  0  0  0  0
  6 39  1  0  0  0  0
 39 40  1  0  0  0  0
M  END
> <ID>
1591252

$$$$
1591253
  -OEChem-05171416412D

 27 28  0     1  0  0  0  0  0999 V2000
    5.1991    1.9899    0.0000 C   0  0  0  0  0  0  0  0  0  0  0  0
    4.3345    2.4925    0.0000 C   0  0  0  0  0  0  0  0  0  0  0  0
    3.4670    1.9950    0.0000 C   0  0  0  0  0  0  0  0  0  0  0  0
    4.3375    3.4925    0.0000 N   0  0  0  0  0  0  0  0  0  0  0  0
    3.4729    3.9950    0.0000 C   0  0  0  0  0  0  0  0  0  0  0  0
    2.6054    3.4976    0.0000 C   0  0  1  0  0  0  0  0  0  0  0  0
    3.1029    2.6301    0.0000 H   0  0  0  0  0  0  0  0  0  0  0  0
    2.1080    4.3651    0.0000 O   0  0  0  0  0  0  0  0  0  0  0  0
    1.7379    3.0001    0.0000 C   0  0  0  0  0  0  0  0  0  0  0  0
    1.7350    2.0001    0.0000 O   0  0  0  0  0  0  0  0  0  0  0  0
    0.8675    1.5027    0.0000 C   0  0  0  0  0  0  0  0  0  0  0  0
    0.8675    0.4975    0.0000 C   0  0  0  0  0  0  0  0  0  0  0  0
    0.0000    0.0000    0.0000 C   0  0  0  0  0  0  0  0  0  0  0  0
   -0.8675    0.4975    0.0000 C   0  0  0  0  0  0  0  0  0  0  0  0
   -0.8675    1.5027    0.0000 C   0  0  0  0  0  0  0  0  0  0  0  0
    0.0000    2.0104    0.0000 C   0  0  0  0  0  0  0  0  0  0  0  0
   -1.7328   -0.0038    0.0000 C   0  0  0  0  0  0  0  0  0  0  0  0
   -2.5995    0.4950    0.0000 O   0  0  0  0  0  0  0  0  0  0  0  0
   -1.7313   -1.0038    0.0000 C   0  0  0  0  0  0  0  0  0  0  0  0
   -0.8586   -1.5025    0.0000 C   0  0  0  0  0  0  0  0  0  0  0  0
   -0.8571   -2.5025    0.0000 C   0  0  0  0  0  0  0  0  0  0  0  0
   -1.7195   -3.0089    0.0000 C   0  0  0  0  0  0  0  0  0  0  0  0
   -2.5922   -2.5101    0.0000 C   0  0  0  0  0  0  0  0  0  0  0  0
   -2.6026   -1.5050    0.0000 C   0  0  0  0  0  0  0  0  0  0  0  0
    5.2050    3.9899    0.0000 C   0  0  0  0  0  0  0  0  0  0  0  0
    5.2079    4.9899    0.0000 C   0  0  0  0  0  0  0  0  0  0  0  0
    6.0695    3.4874    0.0000 C   0  0  0  0  0  0  0  0  0  0  0  0
  1  2  1  0  0  0  0
  2  3  1  0  0  0  0
  2  4  1  0  0  0  0
  4  5  1  0  0  0  0
  5  6  1  0  0  0  0
  6  7  1  1  0  0  0
  6  8  1  0  0  0  0
  6  9  1  0  0  0  0
  9 10  1  0  0  0  0
 10 11  1  0  0  0  0
 11 16  2  0  0  0  0
 11 12  1  0  0  0  0
 12 13  2  0  0  0  0
 13 14  1  0  0  0  0
 14 15  2  0  0  0  0
 15 16  1  0  0  0  0
 14 17  1  0  0  0  0
 17 18  2  0  0  0  0
 17 19  1  0  0  0  0
 19 24  2  0  0  0  0
 19 20  1  0  0  0  0
 20 21  2  0  0  0  0
 21 22  1  0  0  0  0
 22 23  2  0  0  0  0
 23 24  1  0  0  0  0
  4 25  1  0  0  0  0
 25 26  1  0  0  0  0
 25 27  1  0  0  0  0
M  END
> <ID>
1591253

$$$$
1591254
  -OEChem-05171416412D

 26 28  0     1  0  0  0  0  0999 V2000
    0.5015   -2.8635    0.0000 O   0  0  0  0  0  0  0  0  0  0  0  0
    0.0015   -1.9975    0.0000 C   0  0  1  0  0  0  0  0  0  0  0  0
   -0.4985   -1.1315    0.0000 H   0  0  0  0  0  0  0  0  0  0  0  0
   -0.8646   -2.4975    0.0000 C   0  0  0  0  0  0  0  0  0  0  0  0
   -0.8646   -3.4975    0.0000 O   0  0  0  0  0  0  0  0  0  0  0  0
   -1.7306   -3.9975    0.0000 C   0  0  0  0  0  0  0  0  0  0  0  0
   -2.5996   -3.4923    0.0000 C   0  0  0  0  0  0  0  0  0  0  0  0
   -3.4657   -3.9923    0.0000 C   0  0  0  0  0  0  0  0  0  0  0  0
   -3.4715   -4.9923    0.0000 C   0  0  0  0  0  0  0  0  0  0  0  0
   -2.6025   -5.4975    0.0000 C   0  0  0  0  0  0  0  0  0  0  0  0
   -1.7276   -5.0026    0.0000 C   0  0  0  0  0  0  0  0  0  0  0  0
   -2.6084   -6.4975    0.0000 C   0  0  0  0  0  0  0  0  0  0  0  0
   -3.4774   -6.9924    0.0000 O   0  0  0  0  0  0  0  0  0  0  0  0
   -1.7453   -7.0026    0.0000 C   0  0  0  0  0  0  0  0  0  0  0  0
   -0.8733   -6.5025    0.0000 C   0  0  0  0  0  0  0  0  0  0  0  0
   -0.0102   -7.0076    0.0000 C   0  0  0  0  0  0  0  0  0  0  0  0
   -0.0103   -8.0076    0.0000 C   0  0  0  0  0  0  0  0  0  0  0  0
   -0.8823   -8.5077    0.0000 C   0  0  0  0  0  0  0  0  0  0  0  0
   -1.7542   -8.0077    0.0000 C   0  0  0  0  0  0  0  0  0  0  0  0
    0.8675   -1.4975    0.0000 C   0  0  0  0  0  0  0  0  0  0  0  0
    0.8675   -0.4975    0.0000 N   0  0  0  0  0  0  0  0  0  0  0  0
    0.0000    0.0000    0.0000 C   0  0  0  0  0  0  0  0  0  0  0  0
   -0.0000    1.0052    0.0000 C   0  0  0  0  0  0  0  0  0  0  0  0
    0.8675    1.5129    0.0000 O   0  0  0  0  0  0  0  0  0  0  0  0
    1.7350    1.0052    0.0000 C   0  0  0  0  0  0  0  0  0  0  0  0
    1.7350    0.0000    0.0000 C   0  0  0  0  0  0  0  0  0  0  0  0
  1  2  1  0  0  0  0
  2  3  1  6  0  0  0
  2  4  1  0  0  0  0
  4  5  1  0  0  0  0
  5  6  1  0  0  0  0
  6 11  2  0  0  0  0
  6  7  1  0  0  0  0
  7  8  2  0  0  0  0
  8  9  1  0  0  0  0
  9 10  2  0  0  0  0
 10 11  1  0  0  0  0
 10 12  1  0  0  0  0
 12 13  2  0  0  0  0
 12 14  1  0  0  0  0
 14 19  2  0  0  0  0
 14 15  1  0  0  0  0
 15 16  2  0  0  0  0
 16 17  1  0  0  0  0
 17 18  2  0  0  0  0
 18 19  1  0  0  0  0
  2 20  1  0  0  0  0
 20 21  1  0  0  0  0
 21 26  1  0  0  0  0
 21 22  1  0  0  0  0
 22 23  1  0  0  0  0
 23 24  1  0  0  0  0
 24 25  1  0  0  0  0
 25 26  1  0  0  0  0
M  END
> <ID>
1591254

$$$$
1591255
  -OEChem-05171416412D

 32 35  0     1  0  0  0  0  0999 V2000
    0.3660    4.3764    0.0000 O   0  0  0  0  0  0  0  0  0  0  0  0
    0.8660    3.5104    0.0000 C   0  0  1  0  0  0  0  0  0  0  0  0
    1.3660    2.6444    0.0000 H   0  0  0  0  0  0  0  0  0  0  0  0
    1.7321    4.0104    0.0000 C   0  0  0  0  0  0  0  0  0  0  0  0
    1.7321    5.0104    0.0000 O   0  0  0  0  0  0  0  0  0  0  0  0
    2.5981    5.5104    0.0000 C   0  0  0  0  0  0  0  0  0  0  0  0
    2.5951    6.5156    0.0000 C   0  0  0  0  0  0  0  0  0  0  0  0
    3.4611    7.0157    0.0000 C   0  0  0  0  0  0  0  0  0  0  0  0
    4.3301    6.5207    0.0000 C   0  0  0  0  0  0  0  0  0  0  0  0
    4.3331    5.5155    0.0000 C   0  0  0  0  0  0  0  0  0  0  0  0
    3.4671    5.0053    0.0000 C   0  0  0  0  0  0  0  0  0  0  0  0
    5.1939    7.0245    0.0000 C   0  0  0  0  0  0  0  0  0  0  0  0
    6.0621    6.5283    0.0000 O   0  0  0  0  0  0  0  0  0  0  0  0
    5.1895    8.0245    0.0000 C   0  0  0  0  0  0  0  0  0  0  0  0
    6.0533    8.5283    0.0000 C   0  0  0  0  0  0  0  0  0  0  0  0
    6.0489    9.5283    0.0000 C   0  0  0  0  0  0  0  0  0  0  0  0
    5.1758   10.0313    0.0000 C   0  0  0  0  0  0  0  0  0  0  0  0
    5.1727   11.0370    0.0000 C   0  0  0  0  0  0  0  0  0  0  0  0
    6.0429   11.5396    0.0000 C   0  0  0  0  0  0  0  0  0  0  0  0
    6.9104   11.0422    0.0000 C   0  0  0  0  0  0  0  0  0  0  0  0
    7.7788   11.5415    0.0000 C   0  0  0  0  0  0  0  0  0  0  0  0
    8.6475   11.0452    0.0000 C   0  0  0  0  0  0  0  0  0  0  0  0
    8.6493   10.0395    0.0000 C   0  0  0  0  0  0  0  0  0  0  0  0
    7.7822    9.5302    0.0000 C   0  0  0  0  0  0  0  0  0  0  0  0
    6.9135   10.0365    0.0000 C   0  0  0  0  0  0  0  0  0  0  0  0
   -0.0000    3.0104    0.0000 C   0  0  0  0  0  0  0  0  0  0  0  0
   -0.0000    2.0104    0.0000 N   0  0  0  0  0  0  0  0  0  0  0  0
   -0.8675    1.5027    0.0000 C   0  0  0  0  0  0  0  0  0  0  0  0
   -0.8675    0.4975    0.0000 C   0  0  0  0  0  0  0  0  0  0  0  0
    0.0000    0.0000    0.0000 C   0  0  0  0  0  0  0  0  0  0  0  0
    0.8675    0.4975    0.0000 C   0  0  0  0  0  0  0  0  0  0  0  0
    0.8675    1.5027    0.0000 C   0  0  0  0  0  0  0  0  0  0  0  0
  1  2  1  0  0  0  0
  2  3  1  6  0  0  0
  2  4  1  0  0  0  0
  4  5  1  0  0  0  0
  5  6  1  0  0  0  0
  6 11  2  0  0  0  0
  6  7  1  0  0  0  0
  7  8  2  0  0  0  0
  8  9  1  0  0  0  0
  9 10  2  0  0  0  0
 10 11  1  0  0  0  0
  9 12  1  0  0  0  0
 12 13  2  0  0  0  0
 12 14  1  0  0  0  0
 14 15  1  0  0  0  0
 15 16  1  0  0  0  0
 16 25  2  0  0  0  0
 16 17  1  0  0  0  0
 17 18  2  0  0  0  0
 18 19  1  0  0  0  0
 19 20  2  0  0  0  0
 20 25  1  0  0  0  0
 20 21  1  0  0  0  0
 21 22  2  0  0  0  0
 22 23  1  0  0  0  0
 23 24  2  0  0  0  0
 24 25  1  0  0  0  0
  2 26  1  0  0  0  0
 26 27  1  0  0  0  0
 27 32  1  0  0  0  0
 27 28  1  0  0  0  0
 28 29  1  0  0  0  0
 29 30  1  0  0  0  0
 30 31  1  0  0  0  0
 31 32  1  0  0  0  0
M  END
> <ID>
1591255

$$$$
1591256
  -OEChem-05171416412D

 33 35  0     1  0  0  0  0  0999 V2000
    6.9152    6.0146    0.0000 C   0  0  0  0  0  0  0  0  0  0  0  0
    6.0500    6.5161    0.0000 C   0  0  0  0  0  0  0  0  0  0  0  0
    5.1831    6.0176    0.0000 C   0  0  0  0  0  0  0  0  0  0  0  0
    6.0518    7.5161    0.0000 N   0  0  0  0  0  0  0  0  0  0  0  0
    5.1866    8.0176    0.0000 C   0  0  0  0  0  0  0  0  0  0  0  0
    4.3197    7.5191    0.0000 C   0  0  1  0  0  0  0  0  0  0  0  0
    4.8182    6.6522    0.0000 H   0  0  0  0  0  0  0  0  0  0  0  0
    3.8212    8.3860    0.0000 O   0  0  0  0  0  0  0  0  0  0  0  0
    3.4528    7.0206    0.0000 C   0  0  0  0  0  0  0  0  0  0  0  0
    3.4511    6.0206    0.0000 O   0  0  0  0  0  0  0  0  0  0  0  0
    2.5842    5.5221    0.0000 C   0  0  0  0  0  0  0  0  0  0  0  0
    2.5854    4.5169    0.0000 C   0  0  0  0  0  0  0  0  0  0  0  0
    1.7185    4.0184    0.0000 C   0  0  0  0  0  0  0  0  0  0  0  0
    0.8504    4.5148    0.0000 C   0  0  0  0  0  0  0  0  0  0  0  0
    0.8492    5.5200    0.0000 C   0  0  0  0  0  0  0  0  0  0  0  0
    1.7161    6.0288    0.0000 C   0  0  0  0  0  0  0  0  0  0  0  0
   -0.0143    4.0125    0.0000 C   0  0  0  0  0  0  0  0  0  0  0  0
   -0.8816    4.5102    0.0000 O   0  0  0  0  0  0  0  0  0  0  0  0
   -0.0116    3.0125    0.0000 C   0  0  0  0  0  0  0  0  0  0  0  0
   -0.8763    2.5102    0.0000 C   0  0  0  0  0  0  0  0  0  0  0  0
   -0.8736    1.5102    0.0000 C   0  0  0  0  0  0  0  0  0  0  0  0
   -0.0013    1.0057    0.0000 C   0  0  0  0  0  0  0  0  0  0  0  0
    0.0000    0.0000    0.0000 C   0  0  0  0  0  0  0  0  0  0  0  0
   -0.8710   -0.5011    0.0000 C   0  0  0  0  0  0  0  0  0  0  0  0
   -1.7377   -0.0022    0.0000 C   0  0  0  0  0  0  0  0  0  0  0  0
   -2.6069   -0.5000    0.0000 C   0  0  0  0  0  0  0  0  0  0  0  0
   -3.4748   -0.0022    0.0000 C   0  0  0  0  0  0  0  0  0  0  0  0
   -3.4748    1.0035    0.0000 C   0  0  0  0  0  0  0  0  0  0  0  0
   -2.6069    1.5113    0.0000 C   0  0  0  0  0  0  0  0  0  0  0  0
   -1.7390    1.0035    0.0000 C   0  0  0  0  0  0  0  0  0  0  0  0
    6.9186    8.0146    0.0000 C   0  0  0  0  0  0  0  0  0  0  0  0
    6.9204    9.0146    0.0000 C   0  0  0  0  0  0  0  0  0  0  0  0
    7.7838    7.5131    0.0000 C   0  0  0  0  0  0  0  0  0  0  0  0
  1  2  1  0  0  0  0
  2  3  1  0  0  0  0
  2  4  1  0  0  0  0
  4  5  1  0  0  0  0
  5  6  1  0  0  0  0
  6  7  1  1  0  0  0
  6  8  1  0  0  0  0
  6  9  1  0  0  0  0
  9 10  1  0  0  0  0
 10 11  1  0  0  0  0
 11 16  2  0  0  0  0
 11 12  1  0  0  0  0
 12 13  2  0  0  0  0
 13 14  1  0  0  0  0
 14 15  2  0  0  0  0
 15 16  1  0  0  0  0
 14 17  1  0  0  0  0
 17 18  2  0  0  0  0
 17 19  1  0  0  0  0
 19 20  1  0  0  0  0
 20 21  1  0  0  0  0
 21 30  2  0  0  0  0
 21 22  1  0  0  0  0
 22 23  2  0  0  0  0
 23 24  1  0  0  0  0
 24 25  2  0  0  0  0
 25 30  1  0  0  0  0
 25 26  1  0  0  0  0
 26 27  2  0  0  0  0
 27 28  1  0  0  0  0
 28 29  2  0  0  0  0
 29 30  1  0  0  0  0
  4 31  1  0  0  0  0
 31 32  1  0  0  0  0
 31 33  1  0  0  0  0
M  END
> <ID>
1591256

$$$$
1591257
  -OEChem-05171416412D

 32 35  0     1  0  0  0  0  0999 V2000
    0.5015   -2.8635    0.0000 O   0  0  0  0  0  0  0  0  0  0  0  0
    0.0015   -1.9975    0.0000 C   0  0  1  0  0  0  0  0  0  0  0  0
   -0.4985   -1.1315    0.0000 H   0  0  0  0  0  0  0  0  0  0  0  0
   -0.8646   -2.4975    0.0000 C   0  0  0  0  0  0  0  0  0  0  0  0
   -0.8646   -3.4975    0.0000 O   0  0  0  0  0  0  0  0  0  0  0  0
   -1.7306   -3.9975    0.0000 C   0  0  0  0  0  0  0  0  0  0  0  0
   -2.5996   -3.4923    0.0000 C   0  0  0  0  0  0  0  0  0  0  0  0
   -3.4657   -3.9923    0.0000 C   0  0  0  0  0  0  0  0  0  0  0  0
   -3.4715   -4.9923    0.0000 C   0  0  0  0  0  0  0  0  0  0  0  0
   -2.6025   -5.4975    0.0000 C   0  0  0  0  0  0  0  0  0  0  0  0
   -1.7276   -5.0026    0.0000 C   0  0  0  0  0  0  0  0  0  0  0  0
   -2.6084   -6.4975    0.0000 C   0  0  0  0  0  0  0  0  0  0  0  0
   -3.4774   -6.9924    0.0000 O   0  0  0  0  0  0  0  0  0  0  0  0
   -1.7453   -7.0026    0.0000 C   0  0  0  0  0  0  0  0  0  0  0  0
   -1.7512   -8.0026    0.0000 C   0  0  0  0  0  0  0  0  0  0  0  0
   -0.8882   -8.5077    0.0000 C   0  0  0  0  0  0  0  0  0  0  0  0
   -0.0108   -8.0120    0.0000 C   0  0  0  0  0  0  0  0  0  0  0  0
    0.8564   -8.5212    0.0000 C   0  0  0  0  0  0  0  0  0  0  0  0
    0.8463   -9.5260    0.0000 C   0  0  0  0  0  0  0  0  0  0  0  0
   -0.0234  -10.0197    0.0000 C   0  0  0  0  0  0  0  0  0  0  0  0
   -0.0355  -11.0212    0.0000 C   0  0  0  0  0  0  0  0  0  0  0  0
   -0.9048  -11.5165    0.0000 C   0  0  0  0  0  0  0  0  0  0  0  0
   -1.7714  -11.0062    0.0000 C   0  0  0  0  0  0  0  0  0  0  0  0
   -1.7686  -10.0007    0.0000 C   0  0  0  0  0  0  0  0  0  0  0  0
   -0.8907   -9.5105    0.0000 C   0  0  0  0  0  0  0  0  0  0  0  0
    0.8675   -1.4975    0.0000 C   0  0  0  0  0  0  0  0  0  0  0  0
    0.8675   -0.4975    0.0000 N   0  0  0  0  0  0  0  0  0  0  0  0
    0.0000    0.0000    0.0000 C   0  0  0  0  0  0  0  0  0  0  0  0
   -0.0000    1.0052    0.0000 C   0  0  0  0  0  0  0  0  0  0  0  0
    0.8675    1.5129    0.0000 O   0  0  0  0  0  0  0  0  0  0  0  0
    1.7350    1.0052    0.0000 C   0  0  0  0  0  0  0  0  0  0  0  0
    1.7350    0.0000    0.0000 C   0  0  0  0  0  0  0  0  0  0  0  0
  1  2  1  0  0  0  0
  2  3  1  6  0  0  0
  2  4  1  0  0  0  0
  4  5  1  0  0  0  0
  5  6  1  0  0  0  0
  6 11  2  0  0  0  0
  6  7  1  0  0  0  0
  7  8  2  0  0  0  0
  8  9  1  0  0  0  0
  9 10  2  0  0  0  0
 10 11  1  0  0  0  0
 10 12  1  0  0  0  0
 12 13  2  0  0  0  0
 12 14  1  0  0  0  0
 14 15  1  0  0  0  0
 15 16  1  0  0  0  0
 16 25  2  0  0  0  0
 16 17  1  0  0  0  0
 17 18  2  0  0  0  0
 18 19  1  0  0  0  0
 19 20  2  0  0  0  0
 20 25  1  0  0  0  0
 20 21  1  0  0  0  0
 21 22  2  0  0  0  0
 22 23  1  0  0  0  0
 23 24  2  0  0  0  0
 24 25  1  0  0  0  0
  2 26  1  0  0  0  0
 26 27  1  0  0  0  0
 27 32  1  0  0  0  0
 27 28  1  0  0  0  0
 28 29  1  0  0  0  0
 29 30  1  0  0  0  0
 30 31  1  0  0  0  0
 31 32  1  0  0  0  0
M  END
> <ID>
1591257

$$$$
1591258
  -OEChem-05171416412D

 32 35  0     1  0  0  0  0  0999 V2000
    0.3660    4.3764    0.0000 O   0  0  0  0  0  0  0  0  0  0  0  0
    0.8660    3.5104    0.0000 C   0  0  1  0  0  0  0  0  0  0  0  0
    1.3660    2.6444    0.0000 H   0  0  0  0  0  0  0  0  0  0  0  0
    1.7321    4.0104    0.0000 C   0  0  0  0  0  0  0  0  0  0  0  0
    1.7321    5.0104    0.0000 O   0  0  0  0  0  0  0  0  0  0  0  0
    2.5981    5.5104    0.0000 C   0  0  0  0  0  0  0  0  0  0  0  0
    3.4671    5.0052    0.0000 C   0  0  0  0  0  0  0  0  0  0  0  0
    4.3332    5.5052    0.0000 C   0  0  0  0  0  0  0  0  0  0  0  0
    4.3390    6.5052    0.0000 C   0  0  0  0  0  0  0  0  0  0  0  0
    3.4700    7.0104    0.0000 C   0  0  0  0  0  0  0  0  0  0  0  0
    2.5951    6.5155    0.0000 C   0  0  0  0  0  0  0  0  0  0  0  0
    3.4759    8.0104    0.0000 C   0  0  0  0  0  0  0  0  0  0  0  0
    4.3449    8.5053    0.0000 O   0  0  0  0  0  0  0  0  0  0  0  0
    2.6128    8.5155    0.0000 C   0  0  0  0  0  0  0  0  0  0  0  0
    2.6187    9.5155    0.0000 C   0  0  0  0  0  0  0  0  0  0  0  0
    1.7557   10.0206    0.0000 C   0  0  0  0  0  0  0  0  0  0  0  0
    0.8783    9.5249    0.0000 C   0  0  0  0  0  0  0  0  0  0  0  0
    0.0111   10.0341    0.0000 C   0  0  0  0  0  0  0  0  0  0  0  0
    0.0212   11.0389    0.0000 C   0  0  0  0  0  0  0  0  0  0  0  0
    0.8909   11.5326    0.0000 C   0  0  0  0  0  0  0  0  0  0  0  0
    0.9030   12.5341    0.0000 C   0  0  0  0  0  0  0  0  0  0  0  0
    1.7723   13.0294    0.0000 C   0  0  0  0  0  0  0  0  0  0  0  0
    2.6389   12.5191    0.0000 C   0  0  0  0  0  0  0  0  0  0  0  0
    2.6361   11.5136    0.0000 C   0  0  0  0  0  0  0  0  0  0  0  0
    1.7582   11.0234    0.0000 C   0  0  0  0  0  0  0  0  0  0  0  0
   -0.0000    3.0104    0.0000 C   0  0  0  0  0  0  0  0  0  0  0  0
   -0.0000    2.0104    0.0000 N   0  0  0  0  0  0  0  0  0  0  0  0
   -0.8675    1.5027    0.0000 C   0  0  0  0  0  0  0  0  0  0  0  0
   -0.8675    0.4975    0.0000 C   0  0  0  0  0  0  0  0  0  0  0  0
    0.0000    0.0000    0.0000 C   0  0  0  0  0  0  0  0  0  0  0  0
    0.8675    0.4975    0.0000 C   0  0  0  0  0  0  0  0  0  0  0  0
    0.8675    1.5027    0.0000 C   0  0  0  0  0  0  0  0  0  0  0  0
  1  2  1  0  0  0  0
  2  3  1  6  0  0  0
  2  4  1  0  0  0  0
  4  5  1  0  0  0  0
  5  6  1  0  0  0  0
  6 11  2  0  0  0  0
  6  7  1  0  0  0  0
  7  8  2  0  0  0  0
  8  9  1  0  0  0  0
  9 10  2  0  0  0  0
 10 11  1  0  0  0  0
 10 12  1  0  0  0  0
 12 13  2  0  0  0  0
 12 14  1  0  0  0  0
 14 15  1  0  0  0  0
 15 16  1  0  0  0  0
 16 25  2  0  0  0  0
 16 17  1  0  0  0  0
 17 18  2  0  0  0  0
 18 19  1  0  0  0  0
 19 20  2  0  0  0  0
 20 25  1  0  0  0  0
 20 21  1  0  0  0  0
 21 22  2  0  0  0  0
 22 23  1  0  0  0  0
 23 24  2  0  0  0  0
 24 25  1  0  0  0  0
  2 26  1  0  0  0  0
 26 27  1  0  0  0  0
 27 32  1  0  0  0  0
 27 28  1  0  0  0  0
 28 29  1  0  0  0  0
 29 30  1  0  0  0  0
 30 31  1  0  0  0  0
 31 32  1  0  0  0  0
M  END
> <ID>
1591258

$$$$
1591259
  -OEChem-05171416412D

 33 35  0     1  0  0  0  0  0999 V2000
    5.2134    1.0470    0.0000 C   0  0  0  0  0  0  0  0  0  0  0  0
    5.2048    2.0469    0.0000 C   0  0  0  0  0  0  0  0  0  0  0  0
    4.3345    2.5395    0.0000 C   0  0  0  0  0  0  0  0  0  0  0  0
    6.0665    2.5543    0.0000 N   0  0  0  0  0  0  0  0  0  0  0  0
    6.0580    3.5543    0.0000 C   0  0  0  0  0  0  0  0  0  0  0  0
    5.1877    4.0469    0.0000 C   0  0  1  0  0  0  0  0  0  0  0  0
    4.6951    3.1766    0.0000 H   0  0  0  0  0  0  0  0  0  0  0  0
    5.6802    4.9171    0.0000 O   0  0  0  0  0  0  0  0  0  0  0  0
    4.3174    4.5394    0.0000 C   0  0  0  0  0  0  0  0  0  0  0  0
    3.4557    4.0320    0.0000 O   0  0  0  0  0  0  0  0  0  0  0  0
    2.5854    4.5246    0.0000 C   0  0  0  0  0  0  0  0  0  0  0  0
    2.5798    5.5298    0.0000 C   0  0  0  0  0  0  0  0  0  0  0  0
    1.7095    6.0224    0.0000 C   0  0  0  0  0  0  0  0  0  0  0  0
    0.8448    5.5200    0.0000 C   0  0  0  0  0  0  0  0  0  0  0  0
    0.8504    4.5148    0.0000 C   0  0  0  0  0  0  0  0  0  0  0  0
    1.7208    4.0120    0.0000 C   0  0  0  0  0  0  0  0  0  0  0  0
   -0.0143    4.0125    0.0000 C   0  0  0  0  0  0  0  0  0  0  0  0
   -0.8816    4.5102    0.0000 O   0  0  0  0  0  0  0  0  0  0  0  0
   -0.0116    3.0125    0.0000 C   0  0  0  0  0  0  0  0  0  0  0  0
   -0.8763    2.5102    0.0000 C   0  0  0  0  0  0  0  0  0  0  0  0
   -0.8736    1.5102    0.0000 C   0  0  0  0  0  0  0  0  0  0  0  0
   -0.0013    1.0057    0.0000 C   0  0  0  0  0  0  0  0  0  0  0  0
    0.0000    0.0000    0.0000 C   0  0  0  0  0  0  0  0  0  0  0  0
   -0.8710   -0.5011    0.0000 C   0  0  0  0  0  0  0  0  0  0  0  0
   -1.7377   -0.0022    0.0000 C   0  0  0  0  0  0  0  0  0  0  0  0
   -2.6069   -0.5000    0.0000 C   0  0  0  0  0  0  0  0  0  0  0  0
   -3.4748   -0.0022    0.0000 C   0  0  0  0  0  0  0  0  0  0  0  0
   -3.4748    1.0035    0.0000 C   0  0  0  0  0  0  0  0  0  0  0  0
   -2.6069    1.5113    0.0000 C   0  0  0  0  0  0  0  0  0  0  0  0
   -1.7390    1.0035    0.0000 C   0  0  0  0  0  0  0  0  0  0  0  0
    6.9368    2.0618    0.0000 C   0  0  0  0  0  0  0  0  0  0  0  0
    7.7985    2.5692    0.0000 C   0  0  0  0  0  0  0  0  0  0  0  0
    6.9454    1.0618    0.0000 C   0  0  0  0  0  0  0  0  0  0  0  0
  1  2  1  0  0  0  0
  2  3  1  0  0  0  0
  2  4  1  0  0  0  0
  4  5  1  0  0  0  0
  5  6  1  0  0  0  0
  6  7  1  1  0  0  0
  6  8  1  0  0  0  0
  6  9  1  0  0  0  0
  9 10  1  0  0  0  0
 10 11  1  0  0  0  0
 11 16  2  0  0  0  0
 11 12  1  0  0  0  0
 12 13  2  0  0  0  0
 13 14  1  0  0  0  0
 14 15  2  0  0  0  0
 15 16  1  0  0  0  0
 15 17  1  0  0  0  0
 17 18  2  0  0  0  0
 17 19  1  0  0  0  0
 19 20  1  0  0  0  0
 20 21  1  0  0  0  0
 21 30  2  0  0  0  0
 21 22  1  0  0  0  0
 22 23  2  0  0  0  0
 23 24  1  0  0  0  0
 24 25  2  0  0  0  0
 25 30  1  0  0  0  0
 25 26  1  0  0  0  0
 26 27  2  0  0  0  0
 27 28  1  0  0  0  0
 28 29  2  0  0  0  0
 29 30  1  0  0  0  0
  4 31  1  0  0  0  0
 31 32  1  0  0  0  0
 31 33  1  0  0  0  0
M  END
> <ID>
1591259

$$$$
1591260
  -OEChem-05171416412D

 33 35  0     1  0  0  0  0  0999 V2000
   -0.3721    6.0415    0.0000 C   0  0  0  0  0  0  0  0  0  0  0  0
   -0.3706    5.0415    0.0000 C   0  0  0  0  0  0  0  0  0  0  0  0
    0.4962    4.5428    0.0000 C   0  0  0  0  0  0  0  0  0  0  0  0
   -1.2358    4.5402    0.0000 N   0  0  0  0  0  0  0  0  0  0  0  0
   -1.2343    3.5402    0.0000 C   0  0  0  0  0  0  0  0  0  0  0  0
   -0.3675    3.0415    0.0000 C   0  0  1  0  0  0  0  0  0  0  0  0
    0.1312    3.9083    0.0000 H   0  0  0  0  0  0  0  0  0  0  0  0
   -0.8662    2.1747    0.0000 O   0  0  0  0  0  0  0  0  0  0  0  0
    0.4993    2.5428    0.0000 C   0  0  0  0  0  0  0  0  0  0  0  0
    0.5008    1.5428    0.0000 N   0  0  3  0  0  0  0  0  0  0  0  0
    1.3133    0.9519    0.0000 N   0  0  0  0  0  0  0  0  0  0  0  0
    1.0015    0.0000    0.0000 C   0  0  0  0  0  0  0  0  0  0  0  0
    1.5883   -0.8097    0.0000 O   0  0  0  0  0  0  0  0  0  0  0  0
    0.0000    0.0000    0.0000 C   0  0  0  0  0  0  0  0  0  0  0  0
   -0.3065    0.9519    0.0000 C   0  0  0  0  0  0  0  0  0  0  0  0
   -1.2577    1.2605    0.0000 C   0  0  0  0  0  0  0  0  0  0  0  0
   -0.5889   -0.8082    0.0000 C   0  0  0  0  0  0  0  0  0  0  0  0
   -1.5832   -0.7024    0.0000 O   0  0  0  0  0  0  0  0  0  0  0  0
   -0.1833   -1.7223    0.0000 C   0  0  0  0  0  0  0  0  0  0  0  0
    0.8165   -1.8258    0.0000 C   0  0  0  0  0  0  0  0  0  0  0  0
    1.2221   -2.7399    0.0000 C   0  0  0  0  0  0  0  0  0  0  0  0
    0.6380   -3.5516    0.0000 C   0  0  0  0  0  0  0  0  0  0  0  0
   -0.3619   -3.4481    0.0000 C   0  0  0  0  0  0  0  0  0  0  0  0
   -0.7776   -2.5330    0.0000 C   0  0  0  0  0  0  0  0  0  0  0  0
    2.2648    1.2596    0.0000 C   0  0  0  0  0  0  0  0  0  0  0  0
    2.4723    2.2431    0.0000 C   0  0  0  0  0  0  0  0  0  0  0  0
    3.4238    2.5508    0.0000 C   0  0  0  0  0  0  0  0  0  0  0  0
    4.1699    1.8850    0.0000 C   0  0  0  0  0  0  0  0  0  0  0  0
    3.9624    0.9014    0.0000 C   0  0  0  0  0  0  0  0  0  0  0  0
    3.0088    0.5837    0.0000 C   0  0  0  0  0  0  0  0  0  0  0  0
   -2.1026    5.0388    0.0000 C   0  0  0  0  0  0  0  0  0  0  0  0
   -2.9679    4.5375    0.0000 C   0  0  0  0  0  0  0  0  0  0  0  0
   -2.1041    6.0388    0.0000 C   0  0  0  0  0  0  0  0  0  0  0  0
  1  2  1  0  0  0  0
  2  3  1  0  0  0  0
  2  4  1  0  0  0  0
  4  5  1  0  0  0  0
  5  6  1  0  0  0  0
  6  7  1  1  0  0  0
  6  8  1  0  0  0  0
  6  9  1  0  0  0  0
  9 10  1  0  0  0  0
 10 15  1  0  0  0  0
 10 11  1  0  0  0  0
 11 12  1  0  0  0  0
 12 13  2  0  0  0  0
 12 14  1  0  0  0  0
 14 15  2  0  0  0  0
 15 16  1  0  0  0  0
 14 17  1  0  0  0  0
 17 18  2  0  0  0  0
 17 19  1  0  0  0  0
 19 24  2  0  0  0  0
 19 20  1  0  0  0  0
 20 21  2  0  0  0  0
 21 22  1  0  0  0  0
 22 23  2  0  0  0  0
 23 24  1  0  0  0  0
 11 25  1  0  0  0  0
 25 30  2  0  0  0  0
 25 26  1  0  0  0  0
 26 27  2  0  0  0  0
 27 28  1  0  0  0  0
 28 29  2  0  0  0  0
 29 30  1  0  0  0  0
  4 31  1  0  0  0  0
 31 32  1  0  0  0  0
 31 33  1  0  0  0  0
M  END
> <ID>
1591260

$$$$
213821
  -OEChem-05171416412D

 33 37  0     0  0  0  0  0  0999 V2000
    1.0950    4.6748    0.0000 C   0  0  0  0  0  0  0  0  0  0  0  0
    1.8393    4.0070    0.0000 C   0  0  0  0  0  0  0  0  0  0  0  0
    2.8168    4.2198    0.0000 N   0  0  0  0  0  0  0  0  0  0  0  0
    3.3199    3.3501    0.0000 N   0  0  0  0  0  0  0  0  0  0  0  0
    2.6489    2.6065    0.0000 C   0  0  0  0  0  0  0  0  0  0  0  0
    2.8569    1.6283    0.0000 O   0  0  0  0  0  0  0  0  0  0  0  0
    1.7334    3.0126    0.0000 C   0  0  0  0  0  0  0  0  0  0  0  0
    0.8674    2.5126    0.0000 C   0  0  0  0  0  0  0  0  0  0  0  0
    0.8674    1.5126    0.0000 N   0  0  0  0  0  0  0  0  0  0  0  0
    0.0000    1.0051    0.0000 C   0  0  0  0  0  0  0  0  0  0  0  0
    0.0000    0.0000    0.0000 C   0  0  0  0  0  0  0  0  0  0  0  0
    0.8674   -0.4976    0.0000 N   0  0  0  0  0  0  0  0  0  0  0  0
    1.7348    0.0000    0.0000 C   0  0  0  0  0  0  0  0  0  0  0  0
    1.7348    1.0051    0.0000 C   0  0  0  0  0  0  0  0  0  0  0  0
    0.8674   -1.4976    0.0000 C   0  0  0  0  0  0  0  0  0  0  0  0
    1.7327   -1.9989    0.0000 C   0  0  0  0  0  0  0  0  0  0  0  0
    1.7371   -2.9989    0.0000 C   0  0  0  0  0  0  0  0  0  0  0  0
    0.8673   -3.5028    0.0000 C   0  0  0  0  0  0  0  0  0  0  0  0
   -0.0069   -3.0066    0.0000 C   0  0  0  0  0  0  0  0  0  0  0  0
   -0.0024   -2.0015    0.0000 C   0  0  0  0  0  0  0  0  0  0  0  0
   -0.8677   -1.5002    0.0000 C   0  0  0  0  0  0  0  0  0  0  0  0
    0.0014    3.0126    0.0000 C   0  0  0  0  0  0  0  0  0  0  0  0
   -0.8677    2.5074    0.0000 C   0  0  0  0  0  0  0  0  0  0  0  0
   -1.7337    3.0074    0.0000 C   0  0  0  0  0  0  0  0  0  0  0  0
   -1.7396    4.0074    0.0000 C   0  0  0  0  0  0  0  0  0  0  0  0
   -0.8706    4.5126    0.0000 C   0  0  0  0  0  0  0  0  0  0  0  0
    0.0043    4.0177    0.0000 C   0  0  0  0  0  0  0  0  0  0  0  0
    4.3144    3.2455    0.0000 C   0  0  0  0  0  0  0  0  0  0  0  0
    4.9029    4.0604    0.0000 C   0  0  0  0  0  0  0  0  0  0  0  0
    5.8975    3.9558    0.0000 C   0  0  0  0  0  0  0  0  0  0  0  0
    6.3095    3.0446    0.0000 C   0  0  0  0  0  0  0  0  0  0  0  0
    5.7210    2.2297    0.0000 C   0  0  0  0  0  0  0  0  0  0  0  0
    4.7204    2.3260    0.0000 C   0  0  0  0  0  0  0  0  0  0  0  0
  1  2  1  0  0  0  0
  2  7  1  0  0  0  0
  2  3  2  0  0  0  0
  3  4  1  0  0  0  0
  4  5  1  0  0  0  0
  5  6  2  0  0  0  0
  5  7  1  0  0  0  0
  7  8  2  0  0  0  0
  8  9  1  0  0  0  0
  9 14  1  0  0  0  0
  9 10  1  0  0  0  0
 10 11  1  0  0  0  0
 11 12  1  0  0  0  0
 12 13  1  0  0  0  0
 13 14  1  0  0  0  0
 12 15  1  0  0  0  0
 15 20  2  0  0  0  0
 15 16  1  0  0  0  0
 16 17  2  0  0  0  0
 17 18  1  0  0  0  0
 18 19  2  0  0  0  0
 19 20  1  0  0  0  0
 20 21  1  0  0  0  0
  8 22  1  0  0  0  0
 22 27  2  0  0  0  0
 22 23  1  0  0  0  0
 23 24  2  0  0  0  0
 24 25  1  0  0  0  0
 25 26  2  0  0  0  0
 26 27  1  0  0  0  0
  4 28  1  0  0  0  0
 28 33  2  0  0  0  0
 28 29  1  0  0  0  0
 29 30  2  0  0  0  0
 30 31  1  0  0  0  0
 31 32  2  0  0  0  0
 32 33  1  0  0  0  0
M  END
> <ID>
213821

$$$$
1591261
  -OEChem-05171416412D

 39 43  0     1  0  0  0  0  0999 V2000
    2.8278    1.3476    0.0000 C   0  0  0  0  0  0  0  0  0  0  0  0
    3.5711    2.0165    0.0000 C   0  0  0  0  0  0  0  0  0  0  0  0
    4.5504    1.8069    0.0000 C   0  0  0  0  0  0  0  0  0  0  0  0
    4.9571    0.8933    0.0000 C   0  0  0  0  0  0  0  0  0  0  0  0
    5.9516    0.7887    0.0000 O   0  0  0  0  0  0  0  0  0  0  0  0
    4.3692    0.0844    0.0000 C   0  0  0  0  0  0  0  0  0  0  0  0
    3.3699    0.1925    0.0000 C   0  0  0  0  0  0  0  0  0  0  0  0
    2.7819   -0.6165    0.0000 C   0  0  0  0  0  0  0  0  0  0  0  0
    3.1832   -1.5325    0.0000 C   0  0  0  0  0  0  0  0  0  0  0  0
    4.1826   -1.6406    0.0000 C   0  0  0  0  0  0  0  0  0  0  0  0
    4.7807   -0.8327    0.0000 C   0  0  0  0  0  0  0  0  0  0  0  0
    5.0494    2.6736    0.0000 C   0  0  0  0  0  0  0  0  0  0  0  0
    6.0441    2.7762    0.0000 O   0  0  0  0  0  0  0  0  0  0  0  0
    4.3837    3.4204    0.0000 N   0  0  0  0  0  0  0  0  0  0  0  0
    3.4655    3.0126    0.0000 N   0  0  3  0  0  0  0  0  0  0  0  0
    2.5995    3.5126    0.0000 C   0  0  0  0  0  0  0  0  0  0  0  0
    1.7334    3.0126    0.0000 C   0  0  2  0  0  0  0  0  0  0  0  0
    2.2334    2.1466    0.0000 H   0  0  0  0  0  0  0  0  0  0  0  0
    1.2334    3.8786    0.0000 O   0  0  0  0  0  0  0  0  0  0  0  0
    0.8674    2.5126    0.0000 C   0  0  0  0  0  0  0  0  0  0  0  0
    0.8674    1.5126    0.0000 N   0  0  0  0  0  0  0  0  0  0  0  0
    0.0000    1.0051    0.0000 C   0  0  0  0  0  0  0  0  0  0  0  0
    0.0000    0.0000    0.0000 C   0  0  0  0  0  0  0  0  0  0  0  0
    0.8674   -0.4976    0.0000 N   0  0  0  0  0  0  0  0  0  0  0  0
    1.7348    0.0000    0.0000 C   0  0  0  0  0  0  0  0  0  0  0  0
    1.7348    1.0051    0.0000 C   0  0  0  0  0  0  0  0  0  0  0  0
    0.8674   -1.4976    0.0000 C   0  0  0  0  0  0  0  0  0  0  0  0
    1.7327   -1.9989    0.0000 C   0  0  0  0  0  0  0  0  0  0  0  0
    1.7371   -2.9989    0.0000 C   0  0  0  0  0  0  0  0  0  0  0  0
    0.8673   -3.5028    0.0000 C   0  0  0  0  0  0  0  0  0  0  0  0
   -0.0069   -3.0066    0.0000 C   0  0  0  0  0  0  0  0  0  0  0  0
   -0.0024   -2.0015    0.0000 C   0  0  0  0  0  0  0  0  0  0  0  0
   -0.8677   -1.5002    0.0000 C   0  0  0  0  0  0  0  0  0  0  0  0
    4.5945    4.3979    0.0000 C   0  0  0  0  0  0  0  0  0  0  0  0
    5.5523    4.7029    0.0000 C   0  0  0  0  0  0  0  0  0  0  0  0
    5.7631    5.6804    0.0000 C   0  0  0  0  0  0  0  0  0  0  0  0
    5.0259    6.3561    0.0000 C   0  0  0  0  0  0  0  0  0  0  0  0
    4.0681    6.0511    0.0000 C   0  0  0  0  0  0  0  0  0  0  0  0
    3.8475    5.0705    0.0000 C   0  0  0  0  0  0  0  0  0  0  0  0
  1  2  1  0  0  0  0
  2 15  1  0  0  0  0
  2  3  2  0  0  0  0
  3  4  1  0  0  0  0
  4  5  2  0  0  0  0
  4  6  1  0  0  0  0
  6 11  2  0  0  0  0
  6  7  1  0  0  0  0
  7  8  2  0  0  0  0
  8  9  1  0  0  0  0
  9 10  2  0  0  0  0
 10 11  1  0  0  0  0
  3 12  1  0  0  0  0
 12 13  2  0  0  0  0
 12 14  1  0  0  0  0
 14 15  1  0  0  0  0
 15 16  1  0  0  0  0
 16 17  1  0  0  0  0
 17 18  1  6  0  0  0
 17 19  1  0  0  0  0
 17 20  1  0  0  0  0
 20 21  1  0  0  0  0
 21 26  1  0  0  0  0
 21 22  1  0  0  0  0
 22 23  1  0  0  0  0
 23 24  1  0  0  0  0
 24 25  1  0  0  0  0
 25 26  1  0  0  0  0
 24 27  1  0  0  0  0
 27 32  2  0  0  0  0
 27 28  1  0  0  0  0
 28 29  2  0  0  0  0
 29 30  1  0  0  0  0
 30 31  2  0  0  0  0
 31 32  1  0  0  0  0
 32 33  1  0  0  0  0
 14 34  1  0  0  0  0
 34 39  2  0  0  0  0
 34 35  1  0  0  0  0
 35 36  2  0  0  0  0
 36 37  1  0  0  0  0
 37 38  2  0  0  0  0
 38 39  1  0  0  0  0
M  END
> <ID>
1591261

$$$$
1591262
  -OEChem-05171416412D

 28 29  0     1  0  0  0  0  0999 V2000
    1.3599    6.0441    0.0000 C   0  0  0  0  0  0  0  0  0  0  0  0
    1.3615    5.0441    0.0000 C   0  0  0  0  0  0  0  0  0  0  0  0
    0.4962    4.5428    0.0000 C   0  0  0  0  0  0  0  0  0  0  0  0
    2.2283    4.5454    0.0000 N   0  0  0  0  0  0  0  0  0  0  0  0
    2.2298    3.5454    0.0000 C   0  0  0  0  0  0  0  0  0  0  0  0
    1.3645    3.0441    0.0000 C   0  0  1  0  0  0  0  0  0  0  0  0
    0.8632    3.9094    0.0000 H   0  0  0  0  0  0  0  0  0  0  0  0
    1.8659    2.1789    0.0000 O   0  0  0  0  0  0  0  0  0  0  0  0
    0.4993    2.5428    0.0000 C   0  0  0  0  0  0  0  0  0  0  0  0
    0.5008    1.5428    0.0000 N   0  0  3  0  0  0  0  0  0  0  0  0
    1.3133    0.9519    0.0000 N   0  0  0  0  0  0  0  0  0  0  0  0
    2.2648    1.2596    0.0000 C   0  0  0  0  0  0  0  0  0  0  0  0
    1.0015    0.0000    0.0000 C   0  0  0  0  0  0  0  0  0  0  0  0
    1.5883   -0.8097    0.0000 O   0  0  0  0  0  0  0  0  0  0  0  0
    0.0000    0.0000    0.0000 C   0  0  0  0  0  0  0  0  0  0  0  0
   -0.3065    0.9519    0.0000 C   0  0  0  0  0  0  0  0  0  0  0  0
   -1.2577    1.2605    0.0000 C   0  0  0  0  0  0  0  0  0  0  0  0
   -0.5889   -0.8082    0.0000 C   0  0  0  0  0  0  0  0  0  0  0  0
   -1.5832   -0.7024    0.0000 O   0  0  0  0  0  0  0  0  0  0  0  0
   -0.1833   -1.7223    0.0000 C   0  0  0  0  0  0  0  0  0  0  0  0
    0.8165   -1.8258    0.0000 C   0  0  0  0  0  0  0  0  0  0  0  0
    1.2221   -2.7399    0.0000 C   0  0  0  0  0  0  0  0  0  0  0  0
    0.6380   -3.5516    0.0000 C   0  0  0  0  0  0  0  0  0  0  0  0
   -0.3619   -3.4481    0.0000 C   0  0  0  0  0  0  0  0  0  0  0  0
   -0.7776   -2.5330    0.0000 C   0  0  0  0  0  0  0  0  0  0  0  0
    3.0935    5.0468    0.0000 C   0  0  0  0  0  0  0  0  0  0  0  0
    3.9603    4.5481    0.0000 C   0  0  0  0  0  0  0  0  0  0  0  0
    3.0920    6.0468    0.0000 C   0  0  0  0  0  0  0  0  0  0  0  0
  1  2  1  0  0  0  0
  2  3  1  0  0  0  0
  2  4  1  0  0  0  0
  4  5  1  0  0  0  0
  5  6  1  0  0  0  0
  6  7  1  6  0  0  0
  6  8  1  0  0  0  0
  6  9  1  0  0  0  0
  9 10  1  0  0  0  0
 10 16  1  0  0  0  0
 10 11  1  0  0  0  0
 11 12  1  0  0  0  0
 11 13  1  0  0  0  0
 13 14  2  0  0  0  0
 13 15  1  0  0  0  0
 15 16  2  0  0  0  0
 16 17  1  0  0  0  0
 15 18  1  0  0  0  0
 18 19  2  0  0  0  0
 18 20  1  0  0  0  0
 20 25  2  0  0  0  0
 20 21  1  0  0  0  0
 21 22  2  0  0  0  0
 22 23  1  0  0  0  0
 23 24  2  0  0  0  0
 24 25  1  0  0  0  0
  4 26  1  0  0  0  0
 26 27  1  0  0  0  0
 26 28  1  0  0  0  0
M  END
> <ID>
1591262

$$$$
1591263
  -OEChem-05171416412D

 28 29  0     1  0  0  0  0  0999 V2000
    6.1537   -1.2061    0.0000 C   0  0  0  0  0  0  0  0  0  0  0  0
    5.1591   -1.3094    0.0000 C   0  0  0  0  0  0  0  0  0  0  0  0
    4.5723   -0.4997    0.0000 C   0  0  0  0  0  0  0  0  0  0  0  0
    4.7513   -2.2225    0.0000 N   0  0  0  0  0  0  0  0  0  0  0  0
    3.7566   -2.3258    0.0000 C   0  0  0  0  0  0  0  0  0  0  0  0
    3.1698   -1.5161    0.0000 C   0  0  1  0  0  0  0  0  0  0  0  0
    3.9795   -0.9293    0.0000 H   0  0  0  0  0  0  0  0  0  0  0  0
    2.3601   -2.1029    0.0000 O   0  0  0  0  0  0  0  0  0  0  0  0
    2.5830   -0.7064    0.0000 C   0  0  0  0  0  0  0  0  0  0  0  0
    1.5883   -0.8097    0.0000 O   0  0  0  0  0  0  0  0  0  0  0  0
    1.0015    0.0000    0.0000 C   0  0  0  0  0  0  0  0  0  0  0  0
    0.0000    0.0000    0.0000 C   0  0  0  0  0  0  0  0  0  0  0  0
   -0.5889   -0.8082    0.0000 C   0  0  0  0  0  0  0  0  0  0  0  0
   -1.5832   -0.7024    0.0000 O   0  0  0  0  0  0  0  0  0  0  0  0
   -0.1833   -1.7223    0.0000 C   0  0  0  0  0  0  0  0  0  0  0  0
    0.8165   -1.8258    0.0000 C   0  0  0  0  0  0  0  0  0  0  0  0
    1.2221   -2.7399    0.0000 C   0  0  0  0  0  0  0  0  0  0  0  0
    0.6380   -3.5516    0.0000 C   0  0  0  0  0  0  0  0  0  0  0  0
   -0.3619   -3.4481    0.0000 C   0  0  0  0  0  0  0  0  0  0  0  0
   -0.7776   -2.5330    0.0000 C   0  0  0  0  0  0  0  0  0  0  0  0
   -0.3065    0.9519    0.0000 C   0  0  0  0  0  0  0  0  0  0  0  0
   -1.2577    1.2605    0.0000 C   0  0  0  0  0  0  0  0  0  0  0  0
    0.5008    1.5428    0.0000 N   0  0  0  0  0  0  0  0  0  0  0  0
    1.3133    0.9519    0.0000 N   0  0  0  0  0  0  0  0  0  0  0  0
    2.2648    1.2596    0.0000 C   0  0  0  0  0  0  0  0  0  0  0  0
    5.3381   -3.0322    0.0000 C   0  0  0  0  0  0  0  0  0  0  0  0
    4.9303   -3.9452    0.0000 C   0  0  0  0  0  0  0  0  0  0  0  0
    6.3327   -2.9288    0.0000 C   0  0  0  0  0  0  0  0  0  0  0  0
  1  2  1  0  0  0  0
  2  3  1  0  0  0  0
  2  4  1  0  0  0  0
  4  5  1  0  0  0  0
  5  6  1  0  0  0  0
  6  7  1  6  0  0  0
  6  8  1  0  0  0  0
  6  9  1  0  0  0  0
  9 10  1  0  0  0  0
 10 11  1  0  0  0  0
 11 24  1  0  0  0  0
 11 12  2  0  0  0  0
 12 13  1  0  0  0  0
 13 14  2  0  0  0  0
 13 15  1  0  0  0  0
 15 20  2  0  0  0  0
 15 16  1  0  0  0  0
 16 17  2  0  0  0  0
 17 18  1  0  0  0  0
 18 19  2  0  0  0  0
 19 20  1  0  0  0  0
 12 21  1  0  0  0  0
 21 22  1  0  0  0  0
 21 23  2  0  0  0  0
 23 24  1  0  0  0  0
 24 25  1  0  0  0  0
  4 26  1  0  0  0  0
 26 27  1  0  0  0  0
 26 28  1  0  0  0  0
M  END
> <ID>
1591263

$$$$
1591264
  -OEChem-05171416412D

 34 36  0     1  0  0  0  0  0999 V2000
   -0.3721    6.0415    0.0000 C   0  0  0  0  0  0  0  0  0  0  0  0
   -0.3706    5.0415    0.0000 C   0  0  0  0  0  0  0  0  0  0  0  0
    0.4962    4.5428    0.0000 C   0  0  0  0  0  0  0  0  0  0  0  0
   -1.2358    4.5402    0.0000 N   0  0  0  0  0  0  0  0  0  0  0  0
   -1.2343    3.5402    0.0000 C   0  0  0  0  0  0  0  0  0  0  0  0
   -0.3675    3.0415    0.0000 C   0  0  1  0  0  0  0  0  0  0  0  0
    0.1312    3.9083    0.0000 H   0  0  0  0  0  0  0  0  0  0  0  0
   -0.8662    2.1747    0.0000 O   0  0  0  0  0  0  0  0  0  0  0  0
    0.4993    2.5428    0.0000 C   0  0  0  0  0  0  0  0  0  0  0  0
    0.5008    1.5428    0.0000 N   0  0  3  0  0  0  0  0  0  0  0  0
    1.3133    0.9519    0.0000 N   0  0  0  0  0  0  0  0  0  0  0  0
    1.0015    0.0000    0.0000 C   0  0  0  0  0  0  0  0  0  0  0  0
    1.5883   -0.8097    0.0000 O   0  0  0  0  0  0  0  0  0  0  0  0
    0.0000    0.0000    0.0000 C   0  0  0  0  0  0  0  0  0  0  0  0
   -0.3065    0.9519    0.0000 C   0  0  0  0  0  0  0  0  0  0  0  0
   -1.2577    1.2605    0.0000 C   0  0  0  0  0  0  0  0  0  0  0  0
   -0.5889   -0.8082    0.0000 C   0  0  2  0  0  0  0  0  0  0  0  0
    0.2194   -1.3971    0.0000 H   0  0  0  0  0  0  0  0  0  0  0  0
   -1.3971   -0.2194    0.0000 O   0  0  0  0  0  0  0  0  0  0  0  0
   -1.1777   -1.6165    0.0000 C   0  0  0  0  0  0  0  0  0  0  0  0
   -0.7674   -2.5341    0.0000 C   0  0  0  0  0  0  0  0  0  0  0  0
   -1.3562   -3.3424    0.0000 C   0  0  0  0  0  0  0  0  0  0  0  0
   -2.3512   -3.2424    0.0000 C   0  0  0  0  0  0  0  0  0  0  0  0
   -2.7616   -2.3247    0.0000 C   0  0  0  0  0  0  0  0  0  0  0  0
   -2.1769   -1.5071    0.0000 C   0  0  0  0  0  0  0  0  0  0  0  0
    2.2648    1.2596    0.0000 C   0  0  0  0  0  0  0  0  0  0  0  0
    2.4723    2.2431    0.0000 C   0  0  0  0  0  0  0  0  0  0  0  0
    3.4238    2.5508    0.0000 C   0  0  0  0  0  0  0  0  0  0  0  0
    4.1699    1.8850    0.0000 C   0  0  0  0  0  0  0  0  0  0  0  0
    3.9624    0.9014    0.0000 C   0  0  0  0  0  0  0  0  0  0  0  0
    3.0088    0.5837    0.0000 C   0  0  0  0  0  0  0  0  0  0  0  0
   -2.1026    5.0388    0.0000 C   0  0  0  0  0  0  0  0  0  0  0  0
   -2.9679    4.5375    0.0000 C   0  0  0  0  0  0  0  0  0  0  0  0
   -2.1041    6.0388    0.0000 C   0  0  0  0  0  0  0  0  0  0  0  0
  1  2  1  0  0  0  0
  2  3  1  0  0  0  0
  2  4  1  0  0  0  0
  4  5  1  0  0  0  0
  5  6  1  0  0  0  0
  6  7  1  1  0  0  0
  6  8  1  0  0  0  0
  6  9  1  0  0  0  0
  9 10  1  0  0  0  0
 10 15  1  0  0  0  0
 10 11  1  0  0  0  0
 11 12  1  0  0  0  0
 12 13  2  0  0  0  0
 12 14  1  0  0  0  0
 14 15  2  0  0  0  0
 15 16  1  0  0  0  0
 14 17  1  0  0  0  0
 17 18  1  6  0  0  0
 17 19  1  0  0  0  0
 17 20  1  0  0  0  0
 20 25  2  0  0  0  0
 20 21  1  0  0  0  0
 21 22  2  0  0  0  0
 22 23  1  0  0  0  0
 23 24  2  0  0  0  0
 24 25  1  0  0  0  0
 11 26  1  0  0  0  0
 26 31  2  0  0  0  0
 26 27  1  0  0  0  0
 27 28  2  0  0  0  0
 28 29  1  0  0  0  0
 29 30  2  0  0  0  0
 30 31  1  0  0  0  0
  4 32  1  0  0  0  0
 32 33  1  0  0  0  0
 32 34  1  0  0  0  0
M  END
> <ID>
1591264

$$$$
213762
  -OEChem-05171416412D

 24 26  0     0  0  0  0  0  0999 V2000
    2.7620   -2.4291    0.0000 C   0  0  0  0  0  0  0  0  0  0  0  0
    3.1698   -1.5161    0.0000 C   0  0  0  0  0  0  0  0  0  0  0  0
    2.5830   -0.7064    0.0000 C   0  0  0  0  0  0  0  0  0  0  0  0
    1.5883   -0.8097    0.0000 N   0  0  0  0  0  0  0  0  0  0  0  0
    1.0015    0.0000    0.0000 C   0  0  0  0  0  0  0  0  0  0  0  0
    0.0000    0.0000    0.0000 C   0  0  0  0  0  0  0  0  0  0  0  0
   -0.5889   -0.8082    0.0000 C   0  0  0  0  0  0  0  0  0  0  0  0
   -1.5832   -0.7024    0.0000 O   0  0  0  0  0  0  0  0  0  0  0  0
   -0.1833   -1.7223    0.0000 C   0  0  0  0  0  0  0  0  0  0  0  0
    0.8165   -1.8258    0.0000 C   0  0  0  0  0  0  0  0  0  0  0  0
    1.2221   -2.7399    0.0000 C   0  0  0  0  0  0  0  0  0  0  0  0
    0.6380   -3.5516    0.0000 C   0  0  0  0  0  0  0  0  0  0  0  0
   -0.3619   -3.4481    0.0000 C   0  0  0  0  0  0  0  0  0  0  0  0
   -0.7776   -2.5330    0.0000 C   0  0  0  0  0  0  0  0  0  0  0  0
   -0.3065    0.9519    0.0000 C   0  0  0  0  0  0  0  0  0  0  0  0
   -1.2577    1.2605    0.0000 C   0  0  0  0  0  0  0  0  0  0  0  0
    0.5008    1.5428    0.0000 N   0  0  0  0  0  0  0  0  0  0  0  0
    1.3133    0.9519    0.0000 N   0  0  0  0  0  0  0  0  0  0  0  0
    2.2648    1.2596    0.0000 C   0  0  0  0  0  0  0  0  0  0  0  0
    2.4723    2.2431    0.0000 C   0  0  0  0  0  0  0  0  0  0  0  0
    3.4238    2.5508    0.0000 C   0  0  0  0  0  0  0  0  0  0  0  0
    4.1699    1.8850    0.0000 C   0  0  0  0  0  0  0  0  0  0  0  0
    3.9624    0.9014    0.0000 C   0  0  0  0  0  0  0  0  0  0  0  0
    3.0088    0.5837    0.0000 C   0  0  0  0  0  0  0  0  0  0  0  0
  1  2  1  0  0  0  0
  2  3  1  0  0  0  0
  3  4  1  0  0  0  0
  4  5  1  0  0  0  0
  5 18  1  0  0  0  0
  5  6  2  0  0  0  0
  6  7  1  0  0  0  0
  7  8  2  0  0  0  0
  7  9  1  0  0  0  0
  9 14  2  0  0  0  0
  9 10  1  0  0  0  0
 10 11  2  0  0  0  0
 11 12  1  0  0  0  0
 12 13  2  0  0  0  0
 13 14  1  0  0  0  0
  6 15  1  0  0  0  0
 15 16  1  0  0  0  0
 15 17  2  0  0  0  0
 17 18  1  0  0  0  0
 18 19  1  0  0  0  0
 19 24  2  0  0  0  0
 19 20  1  0  0  0  0
 20 21  2  0  0  0  0
 21 22  1  0  0  0  0
 22 23  2  0  0  0  0
 23 24  1  0  0  0  0
M  END
> <ID>
213762

$$$$
1591265
  -OEChem-05171416412D

 27 29  0     1  0  0  0  0  0999 V2000
   -3.2641   -2.0996    0.0000 C   0  0  0  0  0  0  0  0  0  0  0  0
   -2.3509   -2.5072    0.0000 C   0  0  0  0  0  0  0  0  0  0  0  0
   -1.5413   -1.9201    0.0000 C   0  0  0  0  0  0  0  0  0  0  0  0
   -0.6282   -2.3276    0.0000 N   0  0  0  0  0  0  0  0  0  0  0  0
    0.1814   -1.7406    0.0000 C   0  0  0  0  0  0  0  0  0  0  0  0
    1.0946   -2.1481    0.0000 C   0  0  0  0  0  0  0  0  0  0  0  0
    1.1982   -3.1427    0.0000 C   0  0  0  0  0  0  0  0  0  0  0  0
    2.1114   -3.5503    0.0000 C   0  0  0  0  0  0  0  0  0  0  0  0
    2.2126   -4.5504    0.0000 C   0  0  0  0  0  0  0  0  0  0  0  0
    3.1258   -4.9580    0.0000 C   0  0  0  0  0  0  0  0  0  0  0  0
    3.9388   -4.3756    0.0000 C   0  0  0  0  0  0  0  0  0  0  0  0
    3.8376   -3.3755    0.0000 C   0  0  0  0  0  0  0  0  0  0  0  0
    2.9234   -2.9578    0.0000 C   0  0  0  0  0  0  0  0  0  0  0  0
    0.0000    0.0000    0.0000 C   0  0  2  0  0  0  0  0  0  0  0  0
   -0.9785   -0.2062    0.0000 H   0  0  0  0  0  0  0  0  0  0  0  0
   -0.3065    0.9519    0.0000 C   0  0  0  0  0  0  0  0  0  0  0  0
    0.5008    1.5428    0.0000 N   0  0  0  0  0  0  0  0  0  0  0  0
    1.3133    0.9519    0.0000 N   0  0  0  0  0  0  0  0  0  0  0  0
    1.0015    0.0000    0.0000 C   0  0  0  0  0  0  0  0  0  0  0  0
    1.5883   -0.8097    0.0000 O   0  0  0  0  0  0  0  0  0  0  0  0
    2.2648    1.2596    0.0000 C   0  0  0  0  0  0  0  0  0  0  0  0
    2.4723    2.2431    0.0000 C   0  0  0  0  0  0  0  0  0  0  0  0
    3.4238    2.5508    0.0000 C   0  0  0  0  0  0  0  0  0  0  0  0
    4.1699    1.8850    0.0000 C   0  0  0  0  0  0  0  0  0  0  0  0
    3.9624    0.9014    0.0000 C   0  0  0  0  0  0  0  0  0  0  0  0
    3.0088    0.5837    0.0000 C   0  0  0  0  0  0  0  0  0  0  0  0
   -1.2577    1.2605    0.0000 C   0  0  0  0  0  0  0  0  0  0  0  0
  1  2  1  0  0  0  0
  2  3  1  0  0  0  0
  3  4  1  0  0  0  0
  4  5  2  0  0  0  0
  5  6  1  0  0  0  0
  6  7  1  0  0  0  0
  7  8  1  0  0  0  0
  8 13  2  0  0  0  0
  8  9  1  0  0  0  0
  9 10  2  0  0  0  0
 10 11  1  0  0  0  0
 11 12  2  0  0  0  0
 12 13  1  0  0  0  0
  5 14  1  0  0  0  0
 14 15  1  1  0  0  0
 14 19  1  0  0  0  0
 14 16  1  0  0  0  0
 16 17  2  0  0  0  0
 17 18  1  0  0  0  0
 18 19  1  0  0  0  0
 19 20  2  0  0  0  0
 18 21  1  0  0  0  0
 21 26  2  0  0  0  0
 21 22  1  0  0  0  0
 22 23  2  0  0  0  0
 23 24  1  0  0  0  0
 24 25  2  0  0  0  0
 25 26  1  0  0  0  0
 16 27  1  0  0  0  0
M  END
> <ID>
1591265

$$$$
1591266
  -OEChem-05171416412D

 32 34  0     1  0  0  0  0  0999 V2000
   -2.9709    6.5375    0.0000 C   0  0  0  0  0  0  0  0  0  0  0  0
   -2.1041    6.0388    0.0000 C   0  0  0  0  0  0  0  0  0  0  0  0
   -2.1026    5.0388    0.0000 C   0  0  0  0  0  0  0  0  0  0  0  0
   -1.2358    4.5402    0.0000 N   0  0  0  0  0  0  0  0  0  0  0  0
   -1.2343    3.5402    0.0000 C   0  0  0  0  0  0  0  0  0  0  0  0
   -0.3675    3.0415    0.0000 C   0  0  1  0  0  0  0  0  0  0  0  0
   -0.8662    2.1747    0.0000 H   0  0  0  0  0  0  0  0  0  0  0  0
    0.1312    3.9083    0.0000 O   0  0  0  0  0  0  0  0  0  0  0  0
    0.4993    2.5428    0.0000 C   0  0  0  0  0  0  0  0  0  0  0  0
    0.5008    1.5428    0.0000 N   0  0  3  0  0  0  0  0  0  0  0  0
    1.3133    0.9519    0.0000 N   0  0  0  0  0  0  0  0  0  0  0  0
    1.0015    0.0000    0.0000 C   0  0  0  0  0  0  0  0  0  0  0  0
    1.5883   -0.8097    0.0000 O   0  0  0  0  0  0  0  0  0  0  0  0
    0.0000    0.0000    0.0000 C   0  0  0  0  0  0  0  0  0  0  0  0
   -0.3065    0.9519    0.0000 C   0  0  0  0  0  0  0  0  0  0  0  0
   -1.2577    1.2605    0.0000 C   0  0  0  0  0  0  0  0  0  0  0  0
   -0.5889   -0.8082    0.0000 C   0  0  0  0  0  0  0  0  0  0  0  0
   -1.5832   -0.7024    0.0000 O   0  0  0  0  0  0  0  0  0  0  0  0
   -0.1833   -1.7223    0.0000 C   0  0  0  0  0  0  0  0  0  0  0  0
   -0.7722   -2.5306    0.0000 C   0  0  0  0  0  0  0  0  0  0  0  0
   -0.3667   -3.4446    0.0000 C   0  0  0  0  0  0  0  0  0  0  0  0
    0.6332   -3.5481    0.0000 C   0  0  0  0  0  0  0  0  0  0  0  0
    1.0388   -4.4622    0.0000 C   0  0  0  0  0  0  0  0  0  0  0  0
    0.4546   -5.2739    0.0000 C   0  0  0  0  0  0  0  0  0  0  0  0
   -0.5452   -5.1704    0.0000 C   0  0  0  0  0  0  0  0  0  0  0  0
   -0.9610   -4.2553    0.0000 C   0  0  0  0  0  0  0  0  0  0  0  0
    2.2648    1.2596    0.0000 C   0  0  0  0  0  0  0  0  0  0  0  0
    2.4723    2.2431    0.0000 C   0  0  0  0  0  0  0  0  0  0  0  0
    3.4238    2.5508    0.0000 C   0  0  0  0  0  0  0  0  0  0  0  0
    4.1699    1.8850    0.0000 C   0  0  0  0  0  0  0  0  0  0  0  0
    3.9624    0.9014    0.0000 C   0  0  0  0  0  0  0  0  0  0  0  0
    3.0088    0.5837    0.0000 C   0  0  0  0  0  0  0  0  0  0  0  0
  1  2  1  0  0  0  0
  2  3  1  0  0  0  0
  3  4  1  0  0  0  0
  4  5  1  0  0  0  0
  5  6  1  0  0  0  0
  6  7  1  6  0  0  0
  6  8  1  0  0  0  0
  6  9  1  0  0  0  0
  9 10  1  0  0  0  0
 10 15  1  0  0  0  0
 10 11  1  0  0  0  0
 11 12  1  0  0  0  0
 12 13  2  0  0  0  0
 12 14  1  0  0  0  0
 14 15  2  0  0  0  0
 15 16  1  0  0  0  0
 14 17  1  0  0  0  0
 17 18  2  0  0  0  0
 17 19  1  0  0  0  0
 19 20  1  0  0  0  0
 20 21  1  0  0  0  0
 21 26  2  0  0  0  0
 21 22  1  0  0  0  0
 22 23  2  0  0  0  0
 23 24  1  0  0  0  0
 24 25  2  0  0  0  0
 25 26  1  0  0  0  0
 11 27  1  0  0  0  0
 27 32  2  0  0  0  0
 27 28  1  0  0  0  0
 28 29  2  0  0  0  0
 29 30  1  0  0  0  0
 30 31  2  0  0  0  0
 31 32  1  0  0  0  0
M  END
> <ID>
1591266

$$$$
1591267
  -OEChem-05171416412D

 30 32  0     1  0  0  0  0  0999 V2000
   -2.9709    6.5375    0.0000 C   0  0  0  0  0  0  0  0  0  0  0  0
   -2.1041    6.0388    0.0000 C   0  0  0  0  0  0  0  0  0  0  0  0
   -2.1026    5.0388    0.0000 C   0  0  0  0  0  0  0  0  0  0  0  0
   -1.2358    4.5402    0.0000 N   0  0  0  0  0  0  0  0  0  0  0  0
   -1.2343    3.5402    0.0000 C   0  0  0  0  0  0  0  0  0  0  0  0
   -0.3675    3.0415    0.0000 C   0  0  1  0  0  0  0  0  0  0  0  0
   -0.8662    2.1747    0.0000 H   0  0  0  0  0  0  0  0  0  0  0  0
    0.1312    3.9083    0.0000 O   0  0  0  0  0  0  0  0  0  0  0  0
    0.4993    2.5428    0.0000 C   0  0  0  0  0  0  0  0  0  0  0  0
    0.5008    1.5428    0.0000 N   0  0  3  0  0  0  0  0  0  0  0  0
    1.3133    0.9519    0.0000 N   0  0  0  0  0  0  0  0  0  0  0  0
    1.0015    0.0000    0.0000 C   0  0  0  0  0  0  0  0  0  0  0  0
    1.5883   -0.8097    0.0000 O   0  0  0  0  0  0  0  0  0  0  0  0
    0.0000    0.0000    0.0000 C   0  0  0  0  0  0  0  0  0  0  0  0
   -0.3065    0.9519    0.0000 C   0  0  0  0  0  0  0  0  0  0  0  0
   -1.2577    1.2605    0.0000 C   0  0  0  0  0  0  0  0  0  0  0  0
   -0.5889   -0.8082    0.0000 C   0  0  0  0  0  0  0  0  0  0  0  0
   -1.5832   -0.7024    0.0000 O   0  0  0  0  0  0  0  0  0  0  0  0
   -0.1833   -1.7223    0.0000 C   0  0  0  0  0  0  0  0  0  0  0  0
    0.8165   -1.8258    0.0000 C   0  0  0  0  0  0  0  0  0  0  0  0
    1.2221   -2.7399    0.0000 C   0  0  0  0  0  0  0  0  0  0  0  0
    0.6380   -3.5516    0.0000 C   0  0  0  0  0  0  0  0  0  0  0  0
   -0.3619   -3.4481    0.0000 C   0  0  0  0  0  0  0  0  0  0  0  0
   -0.7776   -2.5330    0.0000 C   0  0  0  0  0  0  0  0  0  0  0  0
    2.2648    1.2596    0.0000 C   0  0  0  0  0  0  0  0  0  0  0  0
    2.4723    2.2431    0.0000 C   0  0  0  0  0  0  0  0  0  0  0  0
    3.4238    2.5508    0.0000 C   0  0  0  0  0  0  0  0  0  0  0  0
    4.1699    1.8850    0.0000 C   0  0  0  0  0  0  0  0  0  0  0  0
    3.9624    0.9014    0.0000 C   0  0  0  0  0  0  0  0  0  0  0  0
    3.0088    0.5837    0.0000 C   0  0  0  0  0  0  0  0  0  0  0  0
  1  2  1  0  0  0  0
  2  3  1  0  0  0  0
  3  4  1  0  0  0  0
  4  5  1  0  0  0  0
  5  6  1  0  0  0  0
  6  7  1  6  0  0  0
  6  8  1  0  0  0  0
  6  9  1  0  0  0  0
  9 10  1  0  0  0  0
 10 15  1  0  0  0  0
 10 11  1  0  0  0  0
 11 12  1  0  0  0  0
 12 13  2  0  0  0  0
 12 14  1  0  0  0  0
 14 15  2  0  0  0  0
 15 16  1  0  0  0  0
 14 17  1  0  0  0  0
 17 18  2  0  0  0  0
 17 19  1  0  0  0  0
 19 24  2  0  0  0  0
 19 20  1  0  0  0  0
 20 21  2  0  0  0  0
 21 22  1  0  0  0  0
 22 23  2  0  0  0  0
 23 24  1  0  0  0  0
 11 25  1  0  0  0  0
 25 30  2  0  0  0  0
 25 26  1  0  0  0  0
 26 27  2  0  0  0  0
 27 28  1  0  0  0  0
 28 29  2  0  0  0  0
 29 30  1  0  0  0  0
M  END
> <ID>
1591267

$$$$
1591268
  -OEChem-05171416412D

 32 34  0     1  0  0  0  0  0999 V2000
   -2.1041    6.0388    0.0000 C   0  0  0  0  0  0  0  0  0  0  0  0
   -2.1026    5.0388    0.0000 C   0  0  0  0  0  0  0  0  0  0  0  0
   -2.9679    4.5375    0.0000 C   0  0  0  0  0  0  0  0  0  0  0  0
   -1.2358    4.5402    0.0000 N   0  0  0  0  0  0  0  0  0  0  0  0
   -1.2343    3.5402    0.0000 C   0  0  0  0  0  0  0  0  0  0  0  0
   -0.3675    3.0415    0.0000 C   0  0  1  0  0  0  0  0  0  0  0  0
   -0.8662    2.1747    0.0000 H   0  0  0  0  0  0  0  0  0  0  0  0
    0.1312    3.9083    0.0000 O   0  0  0  0  0  0  0  0  0  0  0  0
    0.4993    2.5428    0.0000 C   0  0  0  0  0  0  0  0  0  0  0  0
    0.5008    1.5428    0.0000 N   0  0  3  0  0  0  0  0  0  0  0  0
    1.3133    0.9519    0.0000 N   0  0  0  0  0  0  0  0  0  0  0  0
    1.0015    0.0000    0.0000 C   0  0  0  0  0  0  0  0  0  0  0  0
    1.5883   -0.8097    0.0000 O   0  0  0  0  0  0  0  0  0  0  0  0
    0.0000    0.0000    0.0000 C   0  0  0  0  0  0  0  0  0  0  0  0
   -0.3065    0.9519    0.0000 C   0  0  0  0  0  0  0  0  0  0  0  0
   -1.2577    1.2605    0.0000 C   0  0  0  0  0  0  0  0  0  0  0  0
   -0.5889   -0.8082    0.0000 C   0  0  0  0  0  0  0  0  0  0  0  0
   -1.5832   -0.7024    0.0000 O   0  0  0  0  0  0  0  0  0  0  0  0
   -0.1833   -1.7223    0.0000 C   0  0  0  0  0  0  0  0  0  0  0  0
   -0.7722   -2.5306    0.0000 C   0  0  0  0  0  0  0  0  0  0  0  0
   -0.3667   -3.4446    0.0000 C   0  0  0  0  0  0  0  0  0  0  0  0
    0.6332   -3.5481    0.0000 C   0  0  0  0  0  0  0  0  0  0  0  0
    1.0388   -4.4622    0.0000 C   0  0  0  0  0  0  0  0  0  0  0  0
    0.4546   -5.2739    0.0000 C   0  0  0  0  0  0  0  0  0  0  0  0
   -0.5452   -5.1704    0.0000 C   0  0  0  0  0  0  0  0  0  0  0  0
   -0.9610   -4.2553    0.0000 C   0  0  0  0  0  0  0  0  0  0  0  0
    2.2648    1.2596    0.0000 C   0  0  0  0  0  0  0  0  0  0  0  0
    2.4723    2.2431    0.0000 C   0  0  0  0  0  0  0  0  0  0  0  0
    3.4238    2.5508    0.0000 C   0  0  0  0  0  0  0  0  0  0  0  0
    4.1699    1.8850    0.0000 C   0  0  0  0  0  0  0  0  0  0  0  0
    3.9624    0.9014    0.0000 C   0  0  0  0  0  0  0  0  0  0  0  0
    3.0088    0.5837    0.0000 C   0  0  0  0  0  0  0  0  0  0  0  0
  1  2  1  0  0  0  0
  2  3  1  0  0  0  0
  2  4  1  0  0  0  0
  4  5  1  0  0  0  0
  5  6  1  0  0  0  0
  6  7  1  6  0  0  0
  6  8  1  0  0  0  0
  6  9  1  0  0  0  0
  9 10  1  0  0  0  0
 10 15  1  0  0  0  0
 10 11  1  0  0  0  0
 11 12  1  0  0  0  0
 12 13  2  0  0  0  0
 12 14  1  0  0  0  0
 14 15  2  0  0  0  0
 15 16  1  0  0  0  0
 14 17  1  0  0  0  0
 17 18  2  0  0  0  0
 17 19  1  0  0  0  0
 19 20  1  0  0  0  0
 20 21  1  0  0  0  0
 21 26  2  0  0  0  0
 21 22  1  0  0  0  0
 22 23  2  0  0  0  0
 23 24  1  0  0  0  0
 24 25  2  0  0  0  0
 25 26  1  0  0  0  0
 11 27  1  0  0  0  0
 27 32  2  0  0  0  0
 27 28  1  0  0  0  0
 28 29  2  0  0  0  0
 29 30  1  0  0  0  0
 30 31  2  0  0  0  0
 31 32  1  0  0  0  0
M  END
> <ID>
1591268

$$$$
1591269
  -OEChem-05171416412D

 33 35  0     1  0  0  0  0  0999 V2000
    1.5883   -0.8097    0.0000 C   0  0  0  0  0  0  0  0  0  0  0  0
    1.0015    0.0000    0.0000 C   0  0  0  0  0  0  0  0  0  0  0  0
    0.0000    0.0000    0.0000 C   0  0  0  0  0  0  0  0  0  0  0  0
   -0.5889   -0.8082    0.0000 C   0  0  0  0  0  0  0  0  0  0  0  0
   -1.5832   -0.7024    0.0000 O   0  0  0  0  0  0  0  0  0  0  0  0
   -0.1833   -1.7223    0.0000 C   0  0  0  0  0  0  0  0  0  0  0  0
   -0.7722   -2.5306    0.0000 C   0  0  0  0  0  0  0  0  0  0  0  0
   -0.3667   -3.4446    0.0000 C   0  0  0  0  0  0  0  0  0  0  0  0
    0.6332   -3.5481    0.0000 C   0  0  0  0  0  0  0  0  0  0  0  0
    1.0388   -4.4622    0.0000 C   0  0  0  0  0  0  0  0  0  0  0  0
    0.4546   -5.2739    0.0000 C   0  0  0  0  0  0  0  0  0  0  0  0
   -0.5452   -5.1704    0.0000 C   0  0  0  0  0  0  0  0  0  0  0  0
   -0.9610   -4.2553    0.0000 C   0  0  0  0  0  0  0  0  0  0  0  0
   -0.3065    0.9519    0.0000 C   0  0  0  0  0  0  0  0  0  0  0  0
   -1.2577    1.2605    0.0000 O   0  0  0  0  0  0  0  0  0  0  0  0
    0.5008    1.5428    0.0000 N   0  0  0  0  0  0  0  0  0  0  0  0
    1.3133    0.9519    0.0000 N   0  0  3  0  0  0  0  0  0  0  0  0
    2.2648    1.2596    0.0000 C   0  0  0  0  0  0  0  0  0  0  0  0
    3.0070    0.5894    0.0000 C   0  0  2  0  0  0  0  0  0  0  0  0
    2.3368   -0.1528    0.0000 H   0  0  0  0  0  0  0  0  0  0  0  0
    3.6772    1.3316    0.0000 O   0  0  0  0  0  0  0  0  0  0  0  0
    3.7492   -0.0808    0.0000 C   0  0  0  0  0  0  0  0  0  0  0  0
    3.5399   -1.0587    0.0000 N   0  0  0  0  0  0  0  0  0  0  0  0
    4.2821   -1.7289    0.0000 C   0  0  0  0  0  0  0  0  0  0  0  0
    3.6119   -2.4711    0.0000 C   0  0  0  0  0  0  0  0  0  0  0  0
    4.9522   -0.9867    0.0000 C   0  0  0  0  0  0  0  0  0  0  0  0
    5.0242   -2.3991    0.0000 C   0  0  0  0  0  0  0  0  0  0  0  0
    0.4993    2.5428    0.0000 C   0  0  0  0  0  0  0  0  0  0  0  0
   -0.3735    3.0415    0.0000 C   0  0  0  0  0  0  0  0  0  0  0  0
   -0.3751    4.0415    0.0000 C   0  0  0  0  0  0  0  0  0  0  0  0
    0.4873    4.5479    0.0000 C   0  0  0  0  0  0  0  0  0  0  0  0
    1.3600    4.0492    0.0000 C   0  0  0  0  0  0  0  0  0  0  0  0
    1.3705    3.0441    0.0000 C   0  0  0  0  0  0  0  0  0  0  0  0
  1  2  1  0  0  0  0
  2 17  1  0  0  0  0
  2  3  2  0  0  0  0
  3  4  1  0  0  0  0
  4  5  2  0  0  0  0
  4  6  1  0  0  0  0
  6  7  1  0  0  0  0
  7  8  1  0  0  0  0
  8 13  2  0  0  0  0
  8  9  1  0  0  0  0
  9 10  2  0  0  0  0
 10 11  1  0  0  0  0
 11 12  2  0  0  0  0
 12 13  1  0  0  0  0
  3 14  1  0  0  0  0
 14 15  2  0  0  0  0
 14 16  1  0  0  0  0
 16 17  1  0  0  0  0
 17 18  1  0  0  0  0
 18 19  1  0  0  0  0
 19 20  1  1  0  0  0
 19 21  1  0  0  0  0
 19 22  1  0  0  0  0
 22 23  1  0  0  0  0
 23 24  1  0  0  0  0
 24 25  1  0  0  0  0
 24 26  1  0  0  0  0
 24 27  1  0  0  0  0
 16 28  1  0  0  0  0
 28 33  2  0  0  0  0
 28 29  1  0  0  0  0
 29 30  2  0  0  0  0
 30 31  1  0  0  0  0
 31 32  2  0  0  0  0
 32 33  1  0  0  0  0
M  END
> <ID>
1591269

$$$$
1591270
  -OEChem-05171416412D

 33 35  0     1  0  0  0  0  0999 V2000
   -2.9725    7.5375    0.0000 C   0  0  0  0  0  0  0  0  0  0  0  0
   -2.9709    6.5375    0.0000 C   0  0  0  0  0  0  0  0  0  0  0  0
   -2.1041    6.0388    0.0000 C   0  0  0  0  0  0  0  0  0  0  0  0
   -2.1026    5.0388    0.0000 C   0  0  0  0  0  0  0  0  0  0  0  0
   -1.2358    4.5402    0.0000 N   0  0  0  0  0  0  0  0  0  0  0  0
   -1.2343    3.5402    0.0000 C   0  0  0  0  0  0  0  0  0  0  0  0
   -0.3675    3.0415    0.0000 C   0  0  1  0  0  0  0  0  0  0  0  0
   -0.8662    2.1747    0.0000 H   0  0  0  0  0  0  0  0  0  0  0  0
    0.1312    3.9083    0.0000 O   0  0  0  0  0  0  0  0  0  0  0  0
    0.4993    2.5428    0.0000 C   0  0  0  0  0  0  0  0  0  0  0  0
    0.5008    1.5428    0.0000 N   0  0  3  0  0  0  0  0  0  0  0  0
    1.3133    0.9519    0.0000 N   0  0  0  0  0  0  0  0  0  0  0  0
    1.0015    0.0000    0.0000 C   0  0  0  0  0  0  0  0  0  0  0  0
    1.5883   -0.8097    0.0000 O   0  0  0  0  0  0  0  0  0  0  0  0
    0.0000    0.0000    0.0000 C   0  0  0  0  0  0  0  0  0  0  0  0
   -0.3065    0.9519    0.0000 C   0  0  0  0  0  0  0  0  0  0  0  0
   -1.2577    1.2605    0.0000 C   0  0  0  0  0  0  0  0  0  0  0  0
   -0.5889   -0.8082    0.0000 C   0  0  0  0  0  0  0  0  0  0  0  0
   -1.5832   -0.7024    0.0000 O   0  0  0  0  0  0  0  0  0  0  0  0
   -0.1833   -1.7223    0.0000 C   0  0  0  0  0  0  0  0  0  0  0  0
   -0.7722   -2.5306    0.0000 C   0  0  0  0  0  0  0  0  0  0  0  0
   -0.3667   -3.4446    0.0000 C   0  0  0  0  0  0  0  0  0  0  0  0
    0.6332   -3.5481    0.0000 C   0  0  0  0  0  0  0  0  0  0  0  0
    1.0388   -4.4622    0.0000 C   0  0  0  0  0  0  0  0  0  0  0  0
    0.4546   -5.2739    0.0000 C   0  0  0  0  0  0  0  0  0  0  0  0
   -0.5452   -5.1704    0.0000 C   0  0  0  0  0  0  0  0  0  0  0  0
   -0.9610   -4.2553    0.0000 C   0  0  0  0  0  0  0  0  0  0  0  0
    2.2648    1.2596    0.0000 C   0  0  0  0  0  0  0  0  0  0  0  0
    2.4723    2.2431    0.0000 C   0  0  0  0  0  0  0  0  0  0  0  0
    3.4238    2.5508    0.0000 C   0  0  0  0  0  0  0  0  0  0  0  0
    4.1699    1.8850    0.0000 C   0  0  0  0  0  0  0  0  0  0  0  0
    3.9624    0.9014    0.0000 C   0  0  0  0  0  0  0  0  0  0  0  0
    3.0088    0.5837    0.0000 C   0  0  0  0  0  0  0  0  0  0  0  0
  1  2  1  0  0  0  0
  2  3  1  0  0  0  0
  3  4  1  0  0  0  0
  4  5  1  0  0  0  0
  5  6  1  0  0  0  0
  6  7  1  0  0  0  0
  7  8  1  6  0  0  0
  7  9  1  0  0  0  0
  7 10  1  0  0  0  0
 10 11  1  0  0  0  0
 11 16  1  0  0  0  0
 11 12  1  0  0  0  0
 12 13  1  0  0  0  0
 13 14  2  0  0  0  0
 13 15  1  0  0  0  0
 15 16  2  0  0  0  0
 16 17  1  0  0  0  0
 15 18  1  0  0  0  0
 18 19  2  0  0  0  0
 18 20  1  0  0  0  0
 20 21  1  0  0  0  0
 21 22  1  0  0  0  0
 22 27  2  0  0  0  0
 22 23  1  0  0  0  0
 23 24  2  0  0  0  0
 24 25  1  0  0  0  0
 25 26  2  0  0  0  0
 26 27  1  0  0  0  0
 12 28  1  0  0  0  0
 28 33  2  0  0  0  0
 28 29  1  0  0  0  0
 29 30  2  0  0  0  0
 30 31  1  0  0  0  0
 31 32  2  0  0  0  0
 32 33  1  0  0  0  0
M  END
> <ID>
1591270

$$$$
1591271
  -OEChem-05171416412D

 30 32  0     1  0  0  0  0  0999 V2000
    1.5883   -0.8097    0.0000 C   0  0  0  0  0  0  0  0  0  0  0  0
    1.0015    0.0000    0.0000 C   0  0  0  0  0  0  0  0  0  0  0  0
    0.0000    0.0000    0.0000 C   0  0  0  0  0  0  0  0  0  0  0  0
   -0.5889   -0.8082    0.0000 C   0  0  0  0  0  0  0  0  0  0  0  0
   -1.5832   -0.7024    0.0000 O   0  0  0  0  0  0  0  0  0  0  0  0
   -0.1833   -1.7223    0.0000 C   0  0  0  0  0  0  0  0  0  0  0  0
    0.7960   -1.9328    0.0000 C   0  0  0  0  0  0  0  0  0  0  0  0
    0.9007   -2.9288    0.0000 C   0  0  0  0  0  0  0  0  0  0  0  0
   -0.0139   -3.3332    0.0000 C   0  0  0  0  0  0  0  0  0  0  0  0
   -0.6860   -2.5922    0.0000 S   0  0  0  0  0  0  0  0  0  0  0  0
   -0.3065    0.9519    0.0000 C   0  0  0  0  0  0  0  0  0  0  0  0
   -1.2577    1.2605    0.0000 O   0  0  0  0  0  0  0  0  0  0  0  0
    0.5008    1.5428    0.0000 N   0  0  0  0  0  0  0  0  0  0  0  0
    1.3133    0.9519    0.0000 N   0  0  3  0  0  0  0  0  0  0  0  0
    2.2648    1.2596    0.0000 C   0  0  0  0  0  0  0  0  0  0  0  0
    3.0070    0.5894    0.0000 C   0  0  2  0  0  0  0  0  0  0  0  0
    2.3368   -0.1528    0.0000 H   0  0  0  0  0  0  0  0  0  0  0  0
    3.6772    1.3316    0.0000 O   0  0  0  0  0  0  0  0  0  0  0  0
    3.7492   -0.0808    0.0000 C   0  0  0  0  0  0  0  0  0  0  0  0
    3.5399   -1.0587    0.0000 N   0  0  0  0  0  0  0  0  0  0  0  0
    4.2821   -1.7289    0.0000 C   0  0  0  0  0  0  0  0  0  0  0  0
    3.6119   -2.4711    0.0000 C   0  0  0  0  0  0  0  0  0  0  0  0
    4.9522   -0.9867    0.0000 C   0  0  0  0  0  0  0  0  0  0  0  0
    5.0242   -2.3991    0.0000 C   0  0  0  0  0  0  0  0  0  0  0  0
    0.4993    2.5428    0.0000 C   0  0  0  0  0  0  0  0  0  0  0  0
   -0.3735    3.0415    0.0000 C   0  0  0  0  0  0  0  0  0  0  0  0
   -0.3751    4.0415    0.0000 C   0  0  0  0  0  0  0  0  0  0  0  0
    0.4873    4.5479    0.0000 C   0  0  0  0  0  0  0  0  0  0  0  0
    1.3600    4.0492    0.0000 C   0  0  0  0  0  0  0  0  0  0  0  0
    1.3705    3.0441    0.0000 C   0  0  0  0  0  0  0  0  0  0  0  0
  1  2  1  0  0  0  0
  2 14  1  0  0  0  0
  2  3  2  0  0  0  0
  3  4  1  0  0  0  0
  4  5  2  0  0  0  0
  4  6  1  0  0  0  0
  6 10  1  0  0  0  0
  6  7  2  0  0  0  0
  7  8  1  0  0  0  0
  8  9  2  0  0  0  0
  9 10  1  0  0  0  0
  3 11  1  0  0  0  0
 11 12  2  0  0  0  0
 11 13  1  0  0  0  0
 13 14  1  0  0  0  0
 14 15  1  0  0  0  0
 15 16  1  0  0  0  0
 16 17  1  1  0  0  0
 16 18  1  0  0  0  0
 16 19  1  0  0  0  0
 19 20  1  0  0  0  0
 20 21  1  0  0  0  0
 21 22  1  0  0  0  0
 21 23  1  0  0  0  0
 21 24  1  0  0  0  0
 13 25  1  0  0  0  0
 25 30  2  0  0  0  0
 25 26  1  0  0  0  0
 26 27  2  0  0  0  0
 27 28  1  0  0  0  0
 28 29  2  0  0  0  0
 29 30  1  0  0  0  0
M  END
> <ID>
1591271

$$$$
1591272
  -OEChem-05171416412D

 29 31  0     1  0  0  0  0  0999 V2000
   -2.1041    6.0388    0.0000 C   0  0  0  0  0  0  0  0  0  0  0  0
   -2.1026    5.0388    0.0000 C   0  0  0  0  0  0  0  0  0  0  0  0
   -2.9679    4.5375    0.0000 C   0  0  0  0  0  0  0  0  0  0  0  0
   -1.2358    4.5402    0.0000 N   0  0  0  0  0  0  0  0  0  0  0  0
   -1.2343    3.5402    0.0000 C   0  0  0  0  0  0  0  0  0  0  0  0
   -0.3675    3.0415    0.0000 C   0  0  1  0  0  0  0  0  0  0  0  0
   -0.8662    2.1747    0.0000 H   0  0  0  0  0  0  0  0  0  0  0  0
    0.1312    3.9083    0.0000 O   0  0  0  0  0  0  0  0  0  0  0  0
    0.4993    2.5428    0.0000 C   0  0  0  0  0  0  0  0  0  0  0  0
    0.5008    1.5428    0.0000 N   0  0  3  0  0  0  0  0  0  0  0  0
    1.3133    0.9519    0.0000 N   0  0  0  0  0  0  0  0  0  0  0  0
    1.0015    0.0000    0.0000 C   0  0  0  0  0  0  0  0  0  0  0  0
    1.5883   -0.8097    0.0000 O   0  0  0  0  0  0  0  0  0  0  0  0
    0.0000    0.0000    0.0000 C   0  0  0  0  0  0  0  0  0  0  0  0
   -0.3065    0.9519    0.0000 C   0  0  0  0  0  0  0  0  0  0  0  0
   -1.2577    1.2605    0.0000 C   0  0  0  0  0  0  0  0  0  0  0  0
   -0.5889   -0.8082    0.0000 C   0  0  0  0  0  0  0  0  0  0  0  0
   -1.5832   -0.7024    0.0000 O   0  0  0  0  0  0  0  0  0  0  0  0
   -0.1833   -1.7223    0.0000 C   0  0  0  0  0  0  0  0  0  0  0  0
    0.7960   -1.9328    0.0000 C   0  0  0  0  0  0  0  0  0  0  0  0
    0.9007   -2.9288    0.0000 C   0  0  0  0  0  0  0  0  0  0  0  0
   -0.0139   -3.3332    0.0000 C   0  0  0  0  0  0  0  0  0  0  0  0
   -0.6860   -2.5922    0.0000 S   0  0  0  0  0  0  0  0  0  0  0  0
    2.2648    1.2596    0.0000 C   0  0  0  0  0  0  0  0  0  0  0  0
    2.4723    2.2431    0.0000 C   0  0  0  0  0  0  0  0  0  0  0  0
    3.4238    2.5508    0.0000 C   0  0  0  0  0  0  0  0  0  0  0  0
    4.1699    1.8850    0.0000 C   0  0  0  0  0  0  0  0  0  0  0  0
    3.9624    0.9014    0.0000 C   0  0  0  0  0  0  0  0  0  0  0  0
    3.0088    0.5837    0.0000 C   0  0  0  0  0  0  0  0  0  0  0  0
  1  2  1  0  0  0  0
  2  3  1  0  0  0  0
  2  4  1  0  0  0  0
  4  5  1  0  0  0  0
  5  6  1  0  0  0  0
  6  7  1  6  0  0  0
  6  8  1  0  0  0  0
  6  9  1  0  0  0  0
  9 10  1  0  0  0  0
 10 15  1  0  0  0  0
 10 11  1  0  0  0  0
 11 12  1  0  0  0  0
 12 13  2  0  0  0  0
 12 14  1  0  0  0  0
 14 15  2  0  0  0  0
 15 16  1  0  0  0  0
 14 17  1  0  0  0  0
 17 18  2  0  0  0  0
 17 19  1  0  0  0  0
 19 23  1  0  0  0  0
 19 20  2  0  0  0  0
 20 21  1  0  0  0  0
 21 22  2  0  0  0  0
 22 23  1  0  0  0  0
 11 24  1  0  0  0  0
 24 29  2  0  0  0  0
 24 25  1  0  0  0  0
 25 26  2  0  0  0  0
 26 27  1  0  0  0  0
 27 28  2  0  0  0  0
 28 29  1  0  0  0  0
M  END
> <ID>
1591272

$$$$
1591273
  -OEChem-05171416412D

 30 32  0     1  0  0  0  0  0999 V2000
   -2.1041    6.0388    0.0000 C   0  0  0  0  0  0  0  0  0  0  0  0
   -2.1026    5.0388    0.0000 C   0  0  0  0  0  0  0  0  0  0  0  0
   -2.9679    4.5375    0.0000 C   0  0  0  0  0  0  0  0  0  0  0  0
   -1.2358    4.5402    0.0000 N   0  0  0  0  0  0  0  0  0  0  0  0
   -1.2343    3.5402    0.0000 C   0  0  0  0  0  0  0  0  0  0  0  0
   -0.3675    3.0415    0.0000 C   0  0  1  0  0  0  0  0  0  0  0  0
   -0.8662    2.1747    0.0000 H   0  0  0  0  0  0  0  0  0  0  0  0
    0.1312    3.9083    0.0000 O   0  0  0  0  0  0  0  0  0  0  0  0
    0.4993    2.5428    0.0000 C   0  0  0  0  0  0  0  0  0  0  0  0
    0.5008    1.5428    0.0000 N   0  0  3  0  0  0  0  0  0  0  0  0
    1.3133    0.9519    0.0000 N   0  0  0  0  0  0  0  0  0  0  0  0
    1.0015    0.0000    0.0000 C   0  0  0  0  0  0  0  0  0  0  0  0
    1.5883   -0.8097    0.0000 O   0  0  0  0  0  0  0  0  0  0  0  0
    0.0000    0.0000    0.0000 C   0  0  0  0  0  0  0  0  0  0  0  0
   -0.3065    0.9519    0.0000 C   0  0  0  0  0  0  0  0  0  0  0  0
   -1.2577    1.2605    0.0000 C   0  0  0  0  0  0  0  0  0  0  0  0
   -0.5889   -0.8082    0.0000 C   0  0  0  0  0  0  0  0  0  0  0  0
   -1.5832   -0.7024    0.0000 O   0  0  0  0  0  0  0  0  0  0  0  0
   -0.1833   -1.7223    0.0000 C   0  0  0  0  0  0  0  0  0  0  0  0
    0.8165   -1.8258    0.0000 C   0  0  0  0  0  0  0  0  0  0  0  0
    1.2221   -2.7399    0.0000 C   0  0  0  0  0  0  0  0  0  0  0  0
    0.6380   -3.5516    0.0000 C   0  0  0  0  0  0  0  0  0  0  0  0
   -0.3619   -3.4481    0.0000 C   0  0  0  0  0  0  0  0  0  0  0  0
   -0.7776   -2.5330    0.0000 C   0  0  0  0  0  0  0  0  0  0  0  0
    2.2648    1.2596    0.0000 C   0  0  0  0  0  0  0  0  0  0  0  0
    2.4723    2.2431    0.0000 C   0  0  0  0  0  0  0  0  0  0  0  0
    3.4238    2.5508    0.0000 C   0  0  0  0  0  0  0  0  0  0  0  0
    4.1699    1.8850    0.0000 C   0  0  0  0  0  0  0  0  0  0  0  0
    3.9624    0.9014    0.0000 C   0  0  0  0  0  0  0  0  0  0  0  0
    3.0088    0.5837    0.0000 C   0  0  0  0  0  0  0  0  0  0  0  0
  1  2  1  0  0  0  0
  2  3  1  0  0  0  0
  2  4  1  0  0  0  0
  4  5  1  0  0  0  0
  5  6  1  0  0  0  0
  6  7  1  6  0  0  0
  6  8  1  0  0  0  0
  6  9  1  0  0  0  0
  9 10  1  0  0  0  0
 10 15  1  0  0  0  0
 10 11  1  0  0  0  0
 11 12  1  0  0  0  0
 12 13  2  0  0  0  0
 12 14  1  0  0  0  0
 14 15  2  0  0  0  0
 15 16  1  0  0  0  0
 14 17  1  0  0  0  0
 17 18  2  0  0  0  0
 17 19  1  0  0  0  0
 19 24  2  0  0  0  0
 19 20  1  0  0  0  0
 20 21  2  0  0  0  0
 21 22  1  0  0  0  0
 22 23  2  0  0  0  0
 23 24  1  0  0  0  0
 11 25  1  0  0  0  0
 25 30  2  0  0  0  0
 25 26  1  0  0  0  0
 26 27  2  0  0  0  0
 27 28  1  0  0  0  0
 28 29  2  0  0  0  0
 29 30  1  0  0  0  0
M  END
> <ID>
1591273

$$$$
1591274
  -OEChem-05171416412D

 31 33  0     1  0  0  0  0  0999 V2000
    1.5883   -0.8097    0.0000 C   0  0  0  0  0  0  0  0  0  0  0  0
    1.0015    0.0000    0.0000 C   0  0  0  0  0  0  0  0  0  0  0  0
    0.0000    0.0000    0.0000 C   0  0  0  0  0  0  0  0  0  0  0  0
   -0.5889   -0.8082    0.0000 C   0  0  0  0  0  0  0  0  0  0  0  0
   -1.5832   -0.7024    0.0000 O   0  0  0  0  0  0  0  0  0  0  0  0
   -0.1833   -1.7223    0.0000 C   0  0  0  0  0  0  0  0  0  0  0  0
    0.8165   -1.8258    0.0000 C   0  0  0  0  0  0  0  0  0  0  0  0
    1.2221   -2.7399    0.0000 C   0  0  0  0  0  0  0  0  0  0  0  0
    0.6380   -3.5516    0.0000 C   0  0  0  0  0  0  0  0  0  0  0  0
   -0.3619   -3.4481    0.0000 C   0  0  0  0  0  0  0  0  0  0  0  0
   -0.7776   -2.5330    0.0000 C   0  0  0  0  0  0  0  0  0  0  0  0
   -0.3065    0.9519    0.0000 C   0  0  0  0  0  0  0  0  0  0  0  0
   -1.2577    1.2605    0.0000 O   0  0  0  0  0  0  0  0  0  0  0  0
    0.5008    1.5428    0.0000 N   0  0  0  0  0  0  0  0  0  0  0  0
    1.3133    0.9519    0.0000 N   0  0  3  0  0  0  0  0  0  0  0  0
    2.2648    1.2596    0.0000 C   0  0  0  0  0  0  0  0  0  0  0  0
    3.0070    0.5894    0.0000 C   0  0  2  0  0  0  0  0  0  0  0  0
    2.3368   -0.1528    0.0000 H   0  0  0  0  0  0  0  0  0  0  0  0
    3.6772    1.3316    0.0000 O   0  0  0  0  0  0  0  0  0  0  0  0
    3.7492   -0.0808    0.0000 C   0  0  0  0  0  0  0  0  0  0  0  0
    3.5399   -1.0587    0.0000 N   0  0  0  0  0  0  0  0  0  0  0  0
    4.2821   -1.7289    0.0000 C   0  0  0  0  0  0  0  0  0  0  0  0
    3.6119   -2.4711    0.0000 C   0  0  0  0  0  0  0  0  0  0  0  0
    4.9522   -0.9867    0.0000 C   0  0  0  0  0  0  0  0  0  0  0  0
    5.0242   -2.3991    0.0000 C   0  0  0  0  0  0  0  0  0  0  0  0
    0.4993    2.5428    0.0000 C   0  0  0  0  0  0  0  0  0  0  0  0
   -0.3735    3.0415    0.0000 C   0  0  0  0  0  0  0  0  0  0  0  0
   -0.3751    4.0415    0.0000 C   0  0  0  0  0  0  0  0  0  0  0  0
    0.4873    4.5479    0.0000 C   0  0  0  0  0  0  0  0  0  0  0  0
    1.3600    4.0492    0.0000 C   0  0  0  0  0  0  0  0  0  0  0  0
    1.3705    3.0441    0.0000 C   0  0  0  0  0  0  0  0  0  0  0  0
  1  2  1  0  0  0  0
  2 15  1  0  0  0  0
  2  3  2  0  0  0  0
  3  4  1  0  0  0  0
  4  5  2  0  0  0  0
  4  6  1  0  0  0  0
  6 11  2  0  0  0  0
  6  7  1  0  0  0  0
  7  8  2  0  0  0  0
  8  9  1  0  0  0  0
  9 10  2  0  0  0  0
 10 11  1  0  0  0  0
  3 12  1  0  0  0  0
 12 13  2  0  0  0  0
 12 14  1  0  0  0  0
 14 15  1  0  0  0  0
 15 16  1  0  0  0  0
 16 17  1  0  0  0  0
 17 18  1  1  0  0  0
 17 19  1  0  0  0  0
 17 20  1  0  0  0  0
 20 21  1  0  0  0  0
 21 22  1  0  0  0  0
 22 23  1  0  0  0  0
 22 24  1  0  0  0  0
 22 25  1  0  0  0  0
 14 26  1  0  0  0  0
 26 31  2  0  0  0  0
 26 27  1  0  0  0  0
 27 28  2  0  0  0  0
 28 29  1  0  0  0  0
 29 30  2  0  0  0  0
 30 31  1  0  0  0  0
M  END
> <ID>
1591274

$$$$
1591275
  -OEChem-05171416412D

 29 31  0     1  0  0  0  0  0999 V2000
   -2.9709    6.5375    0.0000 C   0  0  0  0  0  0  0  0  0  0  0  0
   -2.1041    6.0388    0.0000 C   0  0  0  0  0  0  0  0  0  0  0  0
   -2.1026    5.0388    0.0000 C   0  0  0  0  0  0  0  0  0  0  0  0
   -1.2358    4.5402    0.0000 N   0  0  0  0  0  0  0  0  0  0  0  0
   -1.2343    3.5402    0.0000 C   0  0  0  0  0  0  0  0  0  0  0  0
   -0.3675    3.0415    0.0000 C   0  0  1  0  0  0  0  0  0  0  0  0
   -0.8662    2.1747    0.0000 H   0  0  0  0  0  0  0  0  0  0  0  0
    0.1312    3.9083    0.0000 O   0  0  0  0  0  0  0  0  0  0  0  0
    0.4993    2.5428    0.0000 C   0  0  0  0  0  0  0  0  0  0  0  0
    0.5008    1.5428    0.0000 N   0  0  3  0  0  0  0  0  0  0  0  0
    1.3133    0.9519    0.0000 N   0  0  0  0  0  0  0  0  0  0  0  0
    1.0015    0.0000    0.0000 C   0  0  0  0  0  0  0  0  0  0  0  0
    1.5883   -0.8097    0.0000 O   0  0  0  0  0  0  0  0  0  0  0  0
    0.0000    0.0000    0.0000 C   0  0  0  0  0  0  0  0  0  0  0  0
   -0.3065    0.9519    0.0000 C   0  0  0  0  0  0  0  0  0  0  0  0
   -1.2577    1.2605    0.0000 C   0  0  0  0  0  0  0  0  0  0  0  0
   -0.5889   -0.8082    0.0000 C   0  0  0  0  0  0  0  0  0  0  0  0
   -1.5832   -0.7024    0.0000 O   0  0  0  0  0  0  0  0  0  0  0  0
   -0.1833   -1.7223    0.0000 C   0  0  0  0  0  0  0  0  0  0  0  0
    0.7960   -1.9328    0.0000 C   0  0  0  0  0  0  0  0  0  0  0  0
    0.9007   -2.9288    0.0000 C   0  0  0  0  0  0  0  0  0  0  0  0
   -0.0139   -3.3332    0.0000 C   0  0  0  0  0  0  0  0  0  0  0  0
   -0.6860   -2.5922    0.0000 S   0  0  0  0  0  0  0  0  0  0  0  0
    2.2648    1.2596    0.0000 C   0  0  0  0  0  0  0  0  0  0  0  0
    2.4723    2.2431    0.0000 C   0  0  0  0  0  0  0  0  0  0  0  0
    3.4238    2.5508    0.0000 C   0  0  0  0  0  0  0  0  0  0  0  0
    4.1699    1.8850    0.0000 C   0  0  0  0  0  0  0  0  0  0  0  0
    3.9624    0.9014    0.0000 C   0  0  0  0  0  0  0  0  0  0  0  0
    3.0088    0.5837    0.0000 C   0  0  0  0  0  0  0  0  0  0  0  0
  1  2  1  0  0  0  0
  2  3  1  0  0  0  0
  3  4  1  0  0  0  0
  4  5  1  0  0  0  0
  5  6  1  0  0  0  0
  6  7  1  6  0  0  0
  6  8  1  0  0  0  0
  6  9  1  0  0  0  0
  9 10  1  0  0  0  0
 10 15  1  0  0  0  0
 10 11  1  0  0  0  0
 11 12  1  0  0  0  0
 12 13  2  0  0  0  0
 12 14  1  0  0  0  0
 14 15  2  0  0  0  0
 15 16  1  0  0  0  0
 14 17  1  0  0  0  0
 17 18  2  0  0  0  0
 17 19  1  0  0  0  0
 19 23  1  0  0  0  0
 19 20  2  0  0  0  0
 20 21  1  0  0  0  0
 21 22  2  0  0  0  0
 22 23  1  0  0  0  0
 11 24  1  0  0  0  0
 24 29  2  0  0  0  0
 24 25  1  0  0  0  0
 25 26  2  0  0  0  0
 26 27  1  0  0  0  0
 27 28  2  0  0  0  0
 28 29  1  0  0  0  0
M  END
> <ID>
1591275

$$$$
1591276
  -OEChem-05171416412D

 25 26  0     1  0  0  0  0  0999 V2000
    5.9180   -3.7385    0.0000 C   0  0  0  0  0  0  0  0  0  0  0  0
    5.3312   -2.9288    0.0000 C   0  0  0  0  0  0  0  0  0  0  0  0
    4.3366   -3.0322    0.0000 C   0  0  0  0  0  0  0  0  0  0  0  0
    3.7498   -2.2225    0.0000 N   0  0  0  0  0  0  0  0  0  0  0  0
    2.7551   -2.3258    0.0000 C   0  0  0  0  0  0  0  0  0  0  0  0
    2.1683   -1.5161    0.0000 C   0  0  1  0  0  0  0  0  0  0  0  0
    1.3586   -2.1029    0.0000 H   0  0  0  0  0  0  0  0  0  0  0  0
    2.9780   -0.9293    0.0000 O   0  0  0  0  0  0  0  0  0  0  0  0
    1.5815   -0.7064    0.0000 C   0  0  0  0  0  0  0  0  0  0  0  0
    0.5868   -0.8097    0.0000 O   0  0  0  0  0  0  0  0  0  0  0  0
    0.0000    0.0000    0.0000 C   0  0  0  0  0  0  0  0  0  0  0  0
   -1.0015    0.0000    0.0000 C   0  0  0  0  0  0  0  0  0  0  0  0
   -1.3080    0.9519    0.0000 C   0  0  0  0  0  0  0  0  0  0  0  0
   -0.5007    1.5428    0.0000 S   0  0  0  0  0  0  0  0  0  0  0  0
    0.3118    0.9519    0.0000 C   0  0  0  0  0  0  0  0  0  0  0  0
    1.2633    1.2596    0.0000 C   0  0  0  0  0  0  0  0  0  0  0  0
    2.0055    0.5894    0.0000 O   0  0  0  0  0  0  0  0  0  0  0  0
    1.4726    2.2374    0.0000 C   0  0  0  0  0  0  0  0  0  0  0  0
    2.4241    2.5451    0.0000 C   0  0  0  0  0  0  0  0  0  0  0  0
    2.6334    3.5229    0.0000 C   0  0  0  0  0  0  0  0  0  0  0  0
    1.8854    4.1944    0.0000 C   0  0  0  0  0  0  0  0  0  0  0  0
    2.0946    5.1723    0.0000 C   0  0  0  0  0  0  0  0  0  0  0  0
    3.0443    5.4855    0.0000 C   0  0  0  0  0  0  0  0  0  0  0  0
    3.7924    4.8140    0.0000 C   0  0  0  0  0  0  0  0  0  0  0  0
    3.5907    3.8293    0.0000 C   0  0  0  0  0  0  0  0  0  0  0  0
  1  2  1  0  0  0  0
  2  3  1  0  0  0  0
  3  4  1  0  0  0  0
  4  5  1  0  0  0  0
  5  6  1  0  0  0  0
  6  7  1  1  0  0  0
  6  8  1  0  0  0  0
  6  9  1  0  0  0  0
  9 10  1  0  0  0  0
 10 11  1  0  0  0  0
 11 15  2  0  0  0  0
 11 12  1  0  0  0  0
 12 13  2  0  0  0  0
 13 14  1  0  0  0  0
 14 15  1  0  0  0  0
 15 16  1  0  0  0  0
 16 17  2  0  0  0  0
 16 18  1  0  0  0  0
 18 19  1  0  0  0  0
 19 20  1  0  0  0  0
 20 25  2  0  0  0  0
 20 21  1  0  0  0  0
 21 22  2  0  0  0  0
 22 23  1  0  0  0  0
 23 24  2  0  0  0  0
 24 25  1  0  0  0  0
M  END
> <ID>
1591276

$$$$
89341
  -OEChem-05171416412D

 30 33  0     1  0  0  0  0  0999 V2000
    0.2235    5.9182    0.0000 C   0  0  0  0  0  0  0  0  0  0  0  0
    0.5651    4.9783    0.0000 C   0  0  0  0  0  0  0  0  0  0  0  0
    2.0804    5.8538    0.0000 C   0  0  0  0  0  0  0  0  0  0  0  0
   -0.4288    4.8042    0.0000 O   0  0  0  0  0  0  0  0  0  0  0  0
   -0.7667    3.8586    0.0000 C   0  0  0  0  0  0  0  0  0  0  0  0
   -1.7589    3.6867    0.0000 C   0  0  0  0  0  0  0  0  0  0  0  0
   -2.0950    2.7387    0.0000 C   0  0  0  0  0  0  0  0  0  0  0  0
   -1.4468    1.9698    0.0000 C   0  0  0  0  0  0  0  0  0  0  0  0
   -0.4623    2.1487    0.0000 C   0  0  0  0  0  0  0  0  0  0  0  0
   -0.1187    3.0878    0.0000 C   0  0  0  0  0  0  0  0  0  0  0  0
    0.8674    3.2626    0.0000 C   0  0  1  0  0  0  0  0  0  0  0  0
    2.5905    2.9572    0.0000 H   0  0  0  0  0  0  0  0  0  0  0  0
    1.2132    4.2076    0.0000 C   0  0  1  0  0  0  0  0  0  0  0  0
    1.8559    4.9737    0.0000 H   0  0  0  0  0  0  0  0  0  0  0  0
    2.0788    3.7069    0.0000 O   0  0  0  0  0  0  0  0  0  0  0  0
    0.8674    1.5126    0.0000 N   0  0  0  0  0  0  0  0  0  0  0  0
    0.0000    1.0051    0.0000 C   0  0  0  0  0  0  0  0  0  0  0  0
    0.0000    0.0000    0.0000 C   0  0  0  0  0  0  0  0  0  0  0  0
    0.8674   -0.4976    0.0000 N   0  0  0  0  0  0  0  0  0  0  0  0
    0.8674   -1.4976    0.0000 C   0  0  0  0  0  0  0  0  0  0  0  0
    1.7334   -1.9976    0.0000 C   0  0  0  0  0  0  0  0  0  0  0  0
    2.6025   -1.4924    0.0000 C   0  0  0  0  0  0  0  0  0  0  0  0
    3.4685   -1.9924    0.0000 C   0  0  0  0  0  0  0  0  0  0  0  0
    3.4744   -2.9924    0.0000 C   0  0  0  0  0  0  0  0  0  0  0  0
    2.6054   -3.4976    0.0000 C   0  0  0  0  0  0  0  0  0  0  0  0
    1.7305   -3.0027    0.0000 C   0  0  0  0  0  0  0  0  0  0  0  0
    1.7348    0.0000    0.0000 C   0  0  0  0  0  0  0  0  0  0  0  0
    1.7348    1.0051    0.0000 C   0  0  0  0  0  0  0  0  0  0  0  0
   -1.7853    1.0288    0.0000 C   0  0  0  0  0  0  0  0  0  0  0  0
   -2.1237    0.0879    0.0000 N   0  0  0  0  0  0  0  0  0  0  0  0
  1  2  1  0  0  0  0
  2 13  1  0  0  0  0
  2  3  1  0  0  0  0
  2  4  1  0  0  0  0
  4  5  1  0  0  0  0
  5 10  2  0  0  0  0
  5  6  1  0  0  0  0
  6  7  2  0  0  0  0
  7  8  1  0  0  0  0
  8  9  2  0  0  0  0
  9 10  1  0  0  0  0
 10 11  1  0  0  0  0
 11 12  1  6  0  0  0
 11 13  1  0  0  0  0
 13 14  1  1  0  0  0
 13 15  1  0  0  0  0
 11 16  1  0  0  0  0
 16 28  1  0  0  0  0
 16 17  1  0  0  0  0
 17 18  1  0  0  0  0
 18 19  1  0  0  0  0
 19 20  1  0  0  0  0
 20 21  1  0  0  0  0
 21 26  2  0  0  0  0
 21 22  1  0  0  0  0
 22 23  2  0  0  0  0
 23 24  1  0  0  0  0
 24 25  2  0  0  0  0
 25 26  1  0  0  0  0
 19 27  1  0  0  0  0
 27 28  1  0  0  0  0
  8 29  1  0  0  0  0
 29 30  3  0  0  0  0
M  END
> <ID>
89341

$$$$
1591277
  -OEChem-05171416412D

 21 23  0     1  0  0  0  0  0999 V2000
   -2.0238   -1.7337    0.0000 C   0  0  0  0  0  0  0  0  0  0  0  0
   -1.5202   -0.8698    0.0000 N   0  0  3  0  0  0  0  0  0  0  0  0
   -0.5086   -0.8754    0.0000 C   0  0  0  0  0  0  0  0  0  0  0  0
    0.0000    0.0000    0.0000 C   0  0  0  0  0  0  0  0  0  0  0  0
   -0.5031    0.8809    0.0000 O   0  0  0  0  0  0  0  0  0  0  0  0
   -1.5126    0.8788    0.0000 C   0  0  2  0  0  0  0  0  0  0  0  0
   -1.0129    0.0126    0.0000 H   0  0  0  0  0  0  0  0  0  0  0  0
   -2.0212    0.0035    0.0000 C   0  0  2  0  0  0  0  0  0  0  0  0
   -2.5270   -0.8592    0.0000 H   0  0  0  0  0  0  0  0  0  0  0  0
   -3.0336    0.0142    0.0000 C   0  0  0  0  0  0  0  0  0  0  0  0
   -3.5356   -0.8539    0.0000 C   0  0  0  0  0  0  0  0  0  0  0  0
   -4.5433   -0.8462    0.0000 C   0  0  0  0  0  0  0  0  0  0  0  0
   -5.0414    0.0275    0.0000 C   0  0  0  0  0  0  0  0  0  0  0  0
   -4.5316    0.8935    0.0000 C   0  0  0  0  0  0  0  0  0  0  0  0
   -3.5316    0.8880    0.0000 C   0  0  0  0  0  0  0  0  0  0  0  0
   -3.0211    1.7610    0.0000 O   0  0  0  0  0  0  0  0  0  0  0  0
   -2.0126    1.7601    0.0000 C   0  0  0  0  0  0  0  0  0  0  0  0
   -2.1832    2.7454    0.0000 C   0  0  0  0  0  0  0  0  0  0  0  0
   -1.0711    2.0971    0.0000 C   0  0  0  0  0  0  0  0  0  0  0  0
   -5.0490   -1.7089    0.0000 C   0  0  0  0  0  0  0  0  0  0  0  0
   -5.5546   -2.5717    0.0000 N   0  0  0  0  0  0  0  0  0  0  0  0
  1  2  1  0  0  0  0
  2  8  1  0  0  0  0
  2  3  1  0  0  0  0
  3  4  1  0  0  0  0
  4  5  1  0  0  0  0
  5  6  1  0  0  0  0
  6  7  1  1  0  0  0
  6 17  1  0  0  0  0
  6  8  1  0  0  0  0
  8  9  1  6  0  0  0
  8 10  1  0  0  0  0
 10 15  2  0  0  0  0
 10 11  1  0  0  0  0
 11 12  2  0  0  0  0
 12 13  1  0  0  0  0
 13 14  2  0  0  0  0
 14 15  1  0  0  0  0
 15 16  1  0  0  0  0
 16 17  1  0  0  0  0
 17 18  1  0  0  0  0
 17 19  1  0  0  0  0
 12 20  1  0  0  0  0
 20 21  3  0  0  0  0
M  END
> <ID>
1591277

$$$$
1591278
  -OEChem-05171416412D

 27 30  0     1  0  0  0  0  0999 V2000
    2.8582    2.7179    0.0000 C   0  0  0  0  0  0  0  0  0  0  0  0
    3.0288    1.7326    0.0000 C   0  0  0  0  0  0  0  0  0  0  0  0
    3.9703    2.0696    0.0000 C   0  0  0  0  0  0  0  0  0  0  0  0
    2.0203    1.7335    0.0000 O   0  0  0  0  0  0  0  0  0  0  0  0
    1.5098    0.8605    0.0000 C   0  0  0  0  0  0  0  0  0  0  0  0
    0.5098    0.8660    0.0000 C   0  0  0  0  0  0  0  0  0  0  0  0
    0.0000    0.0000    0.0000 C   0  0  0  0  0  0  0  0  0  0  0  0
    0.4981   -0.8737    0.0000 C   0  0  0  0  0  0  0  0  0  0  0  0
    1.5058   -0.8814    0.0000 C   0  0  0  0  0  0  0  0  0  0  0  0
    2.0078   -0.0133    0.0000 C   0  0  0  0  0  0  0  0  0  0  0  0
    3.0202   -0.0240    0.0000 C   0  0  1  0  0  0  0  0  0  0  0  0
    2.5144   -0.8867    0.0000 H   0  0  0  0  0  0  0  0  0  0  0  0
    3.5288    0.8513    0.0000 C   0  0  1  0  0  0  0  0  0  0  0  0
    2.5288    0.8565    0.0000 H   0  0  0  0  0  0  0  0  0  0  0  0
    4.5383    0.8534    0.0000 O   0  0  0  0  0  0  0  0  0  0  0  0
    5.0414   -0.0275    0.0000 C   0  0  0  0  0  0  0  0  0  0  0  0
    4.5328   -0.9029    0.0000 C   0  0  0  0  0  0  0  0  0  0  0  0
    3.5212   -0.8973    0.0000 N   0  0  3  0  0  0  0  0  0  0  0  0
    3.0176   -1.7612    0.0000 C   0  0  0  0  0  0  0  0  0  0  0  0
    3.5140   -2.6293    0.0000 C   0  0  0  0  0  0  0  0  0  0  0  0
    4.5192   -2.6305    0.0000 C   0  0  0  0  0  0  0  0  0  0  0  0
    5.0157   -3.4986    0.0000 C   0  0  0  0  0  0  0  0  0  0  0  0
    4.5172   -4.3655    0.0000 C   0  0  0  0  0  0  0  0  0  0  0  0
    3.5120   -4.3643    0.0000 C   0  0  0  0  0  0  0  0  0  0  0  0
    3.0053   -3.4962    0.0000 C   0  0  0  0  0  0  0  0  0  0  0  0
   -0.0076   -1.7364    0.0000 C   0  0  0  0  0  0  0  0  0  0  0  0
   -0.5132   -2.5992    0.0000 N   0  0  0  0  0  0  0  0  0  0  0  0
  1  2  1  0  0  0  0
  2 13  1  0  0  0  0
  2  3  1  0  0  0  0
  2  4  1  0  0  0  0
  4  5  1  0  0  0  0
  5 10  2  0  0  0  0
  5  6  1  0  0  0  0
  6  7  2  0  0  0  0
  7  8  1  0  0  0  0
  8  9  2  0  0  0  0
  9 10  1  0  0  0  0
 10 11  1  0  0  0  0
 11 12  1  6  0  0  0
 11 18  1  0  0  0  0
 11 13  1  0  0  0  0
 13 14  1  1  0  0  0
 13 15  1  0  0  0  0
 15 16  1  0  0  0  0
 16 17  1  0  0  0  0
 17 18  1  0  0  0  0
 18 19  1  0  0  0  0
 19 20  1  0  0  0  0
 20 25  2  0  0  0  0
 20 21  1  0  0  0  0
 21 22  2  0  0  0  0
 22 23  1  0  0  0  0
 23 24  2  0  0  0  0
 24 25  1  0  0  0  0
  8 26  1  0  0  0  0
 26 27  3  0  0  0  0
M  END
> <ID>
1591278

$$$$
89342
  -OEChem-05171416412D

 26 27  0     1  0  0  0  0  0999 V2000
    4.9542   -6.0288    0.0000 C   0  0  0  0  0  0  0  0  0  0  0  0
    4.3139   -5.2607    0.0000 C   0  0  0  0  0  0  0  0  0  0  0  0
    5.0820   -4.6204    0.0000 C   0  0  0  0  0  0  0  0  0  0  0  0
    3.5458   -5.9011    0.0000 C   0  0  0  0  0  0  0  0  0  0  0  0
    3.6735   -4.4926    0.0000 O   0  0  0  0  0  0  0  0  0  0  0  0
    4.0185   -3.5540    0.0000 C   0  0  0  0  0  0  0  0  0  0  0  0
    5.0039   -3.3835    0.0000 O   0  0  0  0  0  0  0  0  0  0  0  0
    3.3782   -2.7860    0.0000 C   0  0  0  0  0  0  0  0  0  0  0  0
    3.7232   -1.8474    0.0000 N   0  0  0  0  0  0  0  0  0  0  0  0
    2.6026   -0.5032    0.0000 C   0  0  2  0  0  0  0  0  0  0  0  0
    1.9580   -1.2678    0.0000 H   0  0  0  0  0  0  0  0  0  0  0  0
    3.4761   -0.0036    0.0000 C   0  0  1  0  0  0  0  0  0  0  0  0
    5.2002    0.2965    0.0000 H   0  0  0  0  0  0  0  0  0  0  0  0
    3.8152   -0.9444    0.0000 O   0  0  0  0  0  0  0  0  0  0  0  0
    3.4774    1.0034    0.0000 C   0  0  0  0  0  0  0  0  0  0  0  0
    3.8219    1.9422    0.0000 C   0  0  0  0  0  0  0  0  0  0  0  0
    4.4619    0.8278    0.0000 C   0  0  0  0  0  0  0  0  0  0  0  0
    2.6052    1.5109    0.0000 O   0  0  0  0  0  0  0  0  0  0  0  0
    1.7374    1.0057    0.0000 C   0  0  0  0  0  0  0  0  0  0  0  0
    0.8680    1.5138    0.0000 C   0  0  0  0  0  0  0  0  0  0  0  0
    0.0000    1.0057    0.0000 C   0  0  0  0  0  0  0  0  0  0  0  0
    0.0000    0.0000    0.0000 C   0  0  0  0  0  0  0  0  0  0  0  0
    0.8680   -0.4978    0.0000 C   0  0  0  0  0  0  0  0  0  0  0  0
    1.7360   -0.0012    0.0000 C   0  0  0  0  0  0  0  0  0  0  0  0
   -0.8653   -0.5013    0.0000 C   0  0  0  0  0  0  0  0  0  0  0  0
   -1.7306   -1.0025    0.0000 N   0  0  0  0  0  0  0  0  0  0  0  0
  1  2  1  0  0  0  0
  2  3  1  0  0  0  0
  2  4  1  0  0  0  0
  2  5  1  0  0  0  0
  5  6  1  0  0  0  0
  6  7  2  0  0  0  0
  6  8  1  0  0  0  0
  8  9  1  0  0  0  0
  9 10  1  0  0  0  0
 10 11  1  6  0  0  0
 10 24  1  0  0  0  0
 10 12  1  0  0  0  0
 12 13  1  1  0  0  0
 12 14  1  0  0  0  0
 12 15  1  0  0  0  0
 15 16  1  0  0  0  0
 15 17  1  0  0  0  0
 15 18  1  0  0  0  0
 18 19  1  0  0  0  0
 19 24  2  0  0  0  0
 19 20  1  0  0  0  0
 20 21  2  0  0  0  0
 21 22  1  0  0  0  0
 22 23  2  0  0  0  0
 23 24  1  0  0  0  0
 22 25  1  0  0  0  0
 25 26  3  0  0  0  0
M  END
> <ID>
89342

$$$$
89311
  -OEChem-05171416412D

 33 35  0     1  0  0  0  0  0999 V2000
    7.0243   -0.3972    0.0000 C   0  0  0  0  0  0  0  0  0  0  0  0
    6.6793   -1.3358    0.0000 C   0  0  0  0  0  0  0  0  0  0  0  0
    5.7407   -0.9908    0.0000 C   0  0  0  0  0  0  0  0  0  0  0  0
    7.6179   -1.6808    0.0000 C   0  0  0  0  0  0  0  0  0  0  0  0
    6.3343   -2.2744    0.0000 O   0  0  0  0  0  0  0  0  0  0  0  0
    5.3489   -2.4449    0.0000 C   0  0  0  0  0  0  0  0  0  0  0  0
    5.0039   -3.3835    0.0000 O   0  0  0  0  0  0  0  0  0  0  0  0
    4.7086   -1.6768    0.0000 C   0  0  0  0  0  0  0  0  0  0  0  0
    3.7232   -1.8474    0.0000 N   0  0  3  0  0  0  0  0  0  0  0  0
    3.3782   -2.7860    0.0000 C   0  0  0  0  0  0  0  0  0  0  0  0
    2.3928   -2.9565    0.0000 C   0  0  0  0  0  0  0  0  0  0  0  0
    1.7514   -2.1825    0.0000 C   0  0  0  0  0  0  0  0  0  0  0  0
    0.7660   -2.3530    0.0000 C   0  0  0  0  0  0  0  0  0  0  0  0
    0.4155   -3.2895    0.0000 C   0  0  0  0  0  0  0  0  0  0  0  0
    1.0569   -4.0635    0.0000 C   0  0  0  0  0  0  0  0  0  0  0  0
    2.0488   -3.9009    0.0000 C   0  0  0  0  0  0  0  0  0  0  0  0
    2.6026   -0.5032    0.0000 C   0  0  2  0  0  0  0  0  0  0  0  0
    1.9580   -1.2678    0.0000 H   0  0  0  0  0  0  0  0  0  0  0  0
    3.4761   -0.0036    0.0000 C   0  0  1  0  0  0  0  0  0  0  0  0
    5.2002    0.2965    0.0000 H   0  0  0  0  0  0  0  0  0  0  0  0
    3.8152   -0.9444    0.0000 O   0  0  0  0  0  0  0  0  0  0  0  0
    3.4774    1.0034    0.0000 C   0  0  0  0  0  0  0  0  0  0  0  0
    3.8219    1.9422    0.0000 C   0  0  0  0  0  0  0  0  0  0  0  0
    4.4619    0.8278    0.0000 C   0  0  0  0  0  0  0  0  0  0  0  0
    2.6052    1.5109    0.0000 O   0  0  0  0  0  0  0  0  0  0  0  0
    1.7374    1.0057    0.0000 C   0  0  0  0  0  0  0  0  0  0  0  0
    0.8680    1.5138    0.0000 C   0  0  0  0  0  0  0  0  0  0  0  0
    0.0000    1.0057    0.0000 C   0  0  0  0  0  0  0  0  0  0  0  0
    0.0000    0.0000    0.0000 C   0  0  0  0  0  0  0  0  0  0  0  0
    0.8680   -0.4978    0.0000 C   0  0  0  0  0  0  0  0  0  0  0  0
    1.7360   -0.0012    0.0000 C   0  0  0  0  0  0  0  0  0  0  0  0
   -0.8653   -0.5013    0.0000 C   0  0  0  0  0  0  0  0  0  0  0  0
   -1.7306   -1.0025    0.0000 N   0  0  0  0  0  0  0  0  0  0  0  0
  1  2  1  0  0  0  0
  2  3  1  0  0  0  0
  2  4  1  0  0  0  0
  2  5  1  0  0  0  0
  5  6  1  0  0  0  0
  6  7  2  0  0  0  0
  6  8  1  0  0  0  0
  8  9  1  0  0  0  0
  9 10  1  0  0  0  0
 10 11  1  0  0  0  0
 11 16  2  0  0  0  0
 11 12  1  0  0  0  0
 12 13  2  0  0  0  0
 13 14  1  0  0  0  0
 14 15  2  0  0  0  0
 15 16  1  0  0  0  0
  9 17  1  0  0  0  0
 17 18  1  6  0  0  0
 17 31  1  0  0  0  0
 17 19  1  0  0  0  0
 19 20  1  1  0  0  0
 19 21  1  0  0  0  0
 19 22  1  0  0  0  0
 22 23  1  0  0  0  0
 22 24  1  0  0  0  0
 22 25  1  0  0  0  0
 25 26  1  0  0  0  0
 26 31  2  0  0  0  0
 26 27  1  0  0  0  0
 27 28  2  0  0  0  0
 28 29  1  0  0  0  0
 29 30  2  0  0  0  0
 30 31  1  0  0  0  0
 29 32  1  0  0  0  0
 32 33  3  0  0  0  0
M  END
> <ID>
89311

$$$$
1591279
  -OEChem-05171416412D

 22 23  0     1  0  0  0  0  0999 V2000
    1.8145   -2.7817    0.0000 C   0  0  0  0  0  0  0  0  0  0  0  0
    1.4746   -1.8412    0.0000 N   0  0  3  0  0  0  0  0  0  0  0  0
    0.4902   -1.6652    0.0000 C   0  0  0  0  0  0  0  0  0  0  0  0
   -0.1543   -2.4298    0.0000 C   0  0  0  0  0  0  0  0  0  0  0  0
   -1.1387   -2.2539    0.0000 O   0  0  0  0  0  0  0  0  0  0  0  0
    2.6026   -0.5032    0.0000 C   0  0  2  0  0  0  0  0  0  0  0  0
    3.7232   -1.8474    0.0000 H   0  0  0  0  0  0  0  0  0  0  0  0
    3.4761   -0.0036    0.0000 C   0  0  1  0  0  0  0  0  0  0  0  0
    5.2002    0.2965    0.0000 H   0  0  0  0  0  0  0  0  0  0  0  0
    3.8152   -0.9444    0.0000 O   0  0  0  0  0  0  0  0  0  0  0  0
    3.4774    1.0034    0.0000 C   0  0  0  0  0  0  0  0  0  0  0  0
    3.8219    1.9422    0.0000 C   0  0  0  0  0  0  0  0  0  0  0  0
    4.4619    0.8278    0.0000 C   0  0  0  0  0  0  0  0  0  0  0  0
    2.6052    1.5109    0.0000 O   0  0  0  0  0  0  0  0  0  0  0  0
    1.7374    1.0057    0.0000 C   0  0  0  0  0  0  0  0  0  0  0  0
    0.8680    1.5138    0.0000 C   0  0  0  0  0  0  0  0  0  0  0  0
    0.0000    1.0057    0.0000 C   0  0  0  0  0  0  0  0  0  0  0  0
    0.0000    0.0000    0.0000 C   0  0  0  0  0  0  0  0  0  0  0  0
    0.8680   -0.4978    0.0000 C   0  0  0  0  0  0  0  0  0  0  0  0
    1.7360   -0.0012    0.0000 C   0  0  0  0  0  0  0  0  0  0  0  0
   -0.8653   -0.5013    0.0000 C   0  0  0  0  0  0  0  0  0  0  0  0
   -1.7306   -1.0025    0.0000 N   0  0  0  0  0  0  0  0  0  0  0  0
  1  2  1  0  0  0  0
  2  3  1  0  0  0  0
  3  4  1  0  0  0  0
  4  5  1  0  0  0  0
  2  6  1  0  0  0  0
  6  7  1  6  0  0  0
  6 20  1  0  0  0  0
  6  8  1  0  0  0  0
  8  9  1  1  0  0  0
  8 10  1  0  0  0  0
  8 11  1  0  0  0  0
 11 12  1  0  0  0  0
 11 13  1  0  0  0  0
 11 14  1  0  0  0  0
 14 15  1  0  0  0  0
 15 20  2  0  0  0  0
 15 16  1  0  0  0  0
 16 17  2  0  0  0  0
 17 18  1  0  0  0  0
 18 19  2  0  0  0  0
 19 20  1  0  0  0  0
 18 21  1  0  0  0  0
 21 22  3  0  0  0  0
M  END
> <ID>
1591279

$$$$
1591280
  -OEChem-05171416412D

 28 30  0     1  0  0  0  0  0999 V2000
    3.8219    1.9422    0.0000 C   0  0  0  0  0  0  0  0  0  0  0  0
    3.4774    1.0034    0.0000 C   0  0  0  0  0  0  0  0  0  0  0  0
    5.2002    0.6961    0.0000 C   0  0  0  0  0  0  0  0  0  0  0  0
    2.6052    1.5109    0.0000 O   0  0  0  0  0  0  0  0  0  0  0  0
    1.7374    1.0057    0.0000 C   0  0  0  0  0  0  0  0  0  0  0  0
    0.8680    1.5138    0.0000 C   0  0  0  0  0  0  0  0  0  0  0  0
    0.0000    1.0057    0.0000 C   0  0  0  0  0  0  0  0  0  0  0  0
    0.0000    0.0000    0.0000 C   0  0  0  0  0  0  0  0  0  0  0  0
    0.8680   -0.4978    0.0000 C   0  0  0  0  0  0  0  0  0  0  0  0
    1.7360   -0.0012    0.0000 C   0  0  0  0  0  0  0  0  0  0  0  0
    2.6026   -0.5032    0.0000 C   0  0  1  0  0  0  0  0  0  0  0  0
    3.7232   -1.8474    0.0000 H   0  0  0  0  0  0  0  0  0  0  0  0
    3.4761   -0.0036    0.0000 C   0  0  1  0  0  0  0  0  0  0  0  0
    4.4613    0.1679    0.0000 H   0  0  0  0  0  0  0  0  0  0  0  0
    3.8152   -0.9444    0.0000 O   0  0  0  0  0  0  0  0  0  0  0  0
    1.4746   -1.8412    0.0000 N   0  0  3  0  0  0  0  0  0  0  0  0
    1.8145   -2.7817    0.0000 C   0  0  0  0  0  0  0  0  0  0  0  0
    2.7989   -2.9576    0.0000 C   0  0  0  0  0  0  0  0  0  0  0  0
    3.1387   -3.8981    0.0000 O   0  0  0  0  0  0  0  0  0  0  0  0
    0.4902   -1.6652    0.0000 C   0  0  0  0  0  0  0  0  0  0  0  0
   -0.1543   -2.4298    0.0000 C   0  0  0  0  0  0  0  0  0  0  0  0
    0.1901   -3.3742    0.0000 C   0  0  0  0  0  0  0  0  0  0  0  0
   -0.4545   -4.1388    0.0000 C   0  0  0  0  0  0  0  0  0  0  0  0
   -1.4399   -3.9686    0.0000 C   0  0  0  0  0  0  0  0  0  0  0  0
   -1.7843   -3.0242    0.0000 C   0  0  0  0  0  0  0  0  0  0  0  0
   -1.1433   -2.2500    0.0000 C   0  0  0  0  0  0  0  0  0  0  0  0
   -0.8653   -0.5013    0.0000 C   0  0  0  0  0  0  0  0  0  0  0  0
   -1.7306   -1.0025    0.0000 N   0  0  0  0  0  0  0  0  0  0  0  0
  1  2  1  0  0  0  0
  2 13  1  0  0  0  0
  2  3  1  0  0  0  0
  2  4  1  0  0  0  0
  4  5  1  0  0  0  0
  5 10  2  0  0  0  0
  5  6  1  0  0  0  0
  6  7  2  0  0  0  0
  7  8  1  0  0  0  0
  8  9  2  0  0  0  0
  9 10  1  0  0  0  0
 10 11  1  0  0  0  0
 11 12  1  6  0  0  0
 11 13  1  0  0  0  0
 13 14  1  1  0  0  0
 13 15  1  0  0  0  0
 11 16  1  0  0  0  0
 16 17  1  0  0  0  0
 17 18  1  0  0  0  0
 18 19  1  0  0  0  0
 16 20  1  0  0  0  0
 20 21  1  0  0  0  0
 21 26  2  0  0  0  0
 21 22  1  0  0  0  0
 22 23  2  0  0  0  0
 23 24  1  0  0  0  0
 24 25  2  0  0  0  0
 25 26  1  0  0  0  0
  8 27  1  0  0  0  0
 27 28  3  0  0  0  0
M  END
> <ID>
1591280

$$$$
1591281
  -OEChem-05171416412D

 31 32  0     1  0  0  0  0  0999 V2000
    2.0478   -3.8951    0.0000 C   0  0  0  0  0  0  0  0  0  0  0  0
    3.0332   -3.7246    0.0000 C   0  0  0  0  0  0  0  0  0  0  0  0
    3.6735   -4.4926    0.0000 C   0  0  0  0  0  0  0  0  0  0  0  0
    3.3782   -2.7860    0.0000 C   0  0  1  0  0  0  0  0  0  0  0  0
    2.4396   -2.4409    0.0000 H   0  0  0  0  0  0  0  0  0  0  0  0
    3.7232   -1.8474    0.0000 N   0  0  3  0  0  0  0  0  0  0  0  0
    4.7086   -1.6768    0.0000 C   0  0  0  0  0  0  0  0  0  0  0  0
    2.6026   -0.5032    0.0000 C   0  0  2  0  0  0  0  0  0  0  0  0
    1.9580   -1.2678    0.0000 H   0  0  0  0  0  0  0  0  0  0  0  0
    3.4761   -0.0036    0.0000 C   0  0  1  0  0  0  0  0  0  0  0  0
    5.2002    0.2965    0.0000 H   0  0  0  0  0  0  0  0  0  0  0  0
    3.8152   -0.9444    0.0000 O   0  0  0  0  0  0  0  0  0  0  0  0
    3.4774    1.0034    0.0000 C   0  0  0  0  0  0  0  0  0  0  0  0
    3.8219    1.9422    0.0000 C   0  0  0  0  0  0  0  0  0  0  0  0
    4.4619    0.8278    0.0000 C   0  0  0  0  0  0  0  0  0  0  0  0
    2.6052    1.5109    0.0000 O   0  0  0  0  0  0  0  0  0  0  0  0
    1.7374    1.0057    0.0000 C   0  0  0  0  0  0  0  0  0  0  0  0
    0.8680    1.5138    0.0000 C   0  0  0  0  0  0  0  0  0  0  0  0
    0.0000    1.0057    0.0000 C   0  0  0  0  0  0  0  0  0  0  0  0
    0.0000    0.0000    0.0000 C   0  0  0  0  0  0  0  0  0  0  0  0
    0.8680   -0.4978    0.0000 C   0  0  0  0  0  0  0  0  0  0  0  0
    1.7360   -0.0012    0.0000 C   0  0  0  0  0  0  0  0  0  0  0  0
   -0.8653   -0.5013    0.0000 C   0  0  0  0  0  0  0  0  0  0  0  0
   -1.7306   -1.0025    0.0000 N   0  0  0  0  0  0  0  0  0  0  0  0
    4.3168   -3.1310    0.0000 C   0  0  0  0  0  0  0  0  0  0  0  0
    5.0849   -2.4906    0.0000 O   0  0  0  0  0  0  0  0  0  0  0  0
    4.4873   -4.1163    0.0000 O   0  0  0  0  0  0  0  0  0  0  0  0
    5.4259   -4.4613    0.0000 C   0  0  0  0  0  0  0  0  0  0  0  0
    5.0809   -5.3999    0.0000 C   0  0  0  0  0  0  0  0  0  0  0  0
    5.7709   -3.5227    0.0000 C   0  0  0  0  0  0  0  0  0  0  0  0
    6.3645   -4.8063    0.0000 C   0  0  0  0  0  0  0  0  0  0  0  0
  1  2  1  0  0  0  0
  2  3  1  0  0  0  0
  2  4  1  0  0  0  0
  4  5  1  6  0  0  0
  4  6  1  0  0  0  0
  6  7  1  0  0  0  0
  6  8  1  0  0  0  0
  8  9  1  6  0  0  0
  8 22  1  0  0  0  0
  8 10  1  0  0  0  0
 10 11  1  1  0  0  0
 10 12  1  0  0  0  0
 10 13  1  0  0  0  0
 13 14  1  0  0  0  0
 13 15  1  0  0  0  0
 13 16  1  0  0  0  0
 16 17  1  0  0  0  0
 17 22  2  0  0  0  0
 17 18  1  0  0  0  0
 18 19  2  0  0  0  0
 19 20  1  0  0  0  0
 20 21  2  0  0  0  0
 21 22  1  0  0  0  0
 20 23  1  0  0  0  0
 23 24  3  0  0  0  0
  4 25  1  0  0  0  0
 25 26  2  0  0  0  0
 25 27  1  0  0  0  0
 27 28  1  0  0  0  0
 28 29  1  0  0  0  0
 28 30  1  0  0  0  0
 28 31  1  0  0  0  0
M  END
> <ID>
1591281

$$$$
1591282
  -OEChem-05171416412D

 24 26  0     1  0  0  0  0  0999 V2000
    1.1982   -0.5809    0.0000 C   0  0  0  0  0  0  0  0  0  0  0  0
    0.4298   -1.2209    0.0000 C   0  0  0  0  0  0  0  0  0  0  0  0
    0.5999   -2.2063    0.0000 C   0  0  0  0  0  0  0  0  0  0  0  0
   -0.5086   -0.8754    0.0000 C   0  0  2  0  0  0  0  0  0  0  0  0
   -0.6868   -1.8594    0.0000 H   0  0  0  0  0  0  0  0  0  0  0  0
    0.0000    0.0000    0.0000 C   0  0  0  0  0  0  0  0  0  0  0  0
   -0.5031    0.8809    0.0000 O   0  0  0  0  0  0  0  0  0  0  0  0
   -1.5126    0.8788    0.0000 C   0  0  2  0  0  0  0  0  0  0  0  0
   -1.0129    0.0126    0.0000 H   0  0  0  0  0  0  0  0  0  0  0  0
   -2.0212    0.0035    0.0000 C   0  0  1  0  0  0  0  0  0  0  0  0
   -2.5270   -0.8592    0.0000 H   0  0  0  0  0  0  0  0  0  0  0  0
   -1.5202   -0.8698    0.0000 N   0  0  0  0  0  0  0  0  0  0  0  0
   -3.0336    0.0142    0.0000 C   0  0  0  0  0  0  0  0  0  0  0  0
   -3.5356   -0.8539    0.0000 C   0  0  0  0  0  0  0  0  0  0  0  0
   -4.5433   -0.8462    0.0000 C   0  0  0  0  0  0  0  0  0  0  0  0
   -5.0414    0.0275    0.0000 C   0  0  0  0  0  0  0  0  0  0  0  0
   -4.5316    0.8935    0.0000 C   0  0  0  0  0  0  0  0  0  0  0  0
   -3.5316    0.8880    0.0000 C   0  0  0  0  0  0  0  0  0  0  0  0
   -3.0211    1.7610    0.0000 O   0  0  0  0  0  0  0  0  0  0  0  0
   -2.0126    1.7601    0.0000 C   0  0  0  0  0  0  0  0  0  0  0  0
   -2.1832    2.7454    0.0000 C   0  0  0  0  0  0  0  0  0  0  0  0
   -1.0711    2.0971    0.0000 C   0  0  0  0  0  0  0  0  0  0  0  0
   -5.0490   -1.7089    0.0000 C   0  0  0  0  0  0  0  0  0  0  0  0
   -5.5546   -2.5717    0.0000 N   0  0  0  0  0  0  0  0  0  0  0  0
  1  2  1  0  0  0  0
  2  3  1  0  0  0  0
  2  4  1  0  0  0  0
  4  5  1  6  0  0  0
  4 12  1  0  0  0  0
  4  6  1  0  0  0  0
  6  7  1  0  0  0  0
  7  8  1  0  0  0  0
  8  9  1  1  0  0  0
  8 20  1  0  0  0  0
  8 10  1  0  0  0  0
 10 11  1  6  0  0  0
 10 12  1  0  0  0  0
 10 13  1  0  0  0  0
 13 18  2  0  0  0  0
 13 14  1  0  0  0  0
 14 15  2  0  0  0  0
 15 16  1  0  0  0  0
 16 17  2  0  0  0  0
 17 18  1  0  0  0  0
 18 19  1  0  0  0  0
 19 20  1  0  0  0  0
 20 21  1  0  0  0  0
 20 22  1  0  0  0  0
 15 23  1  0  0  0  0
 23 24  3  0  0  0  0
M  END
> <ID>
1591282

$$$$
1591283
  -OEChem-05171416412D

 38 42  0     1  0  0  0  0  0999 V2000
    1.1900   -6.1996    0.0000 C   0  0  0  0  0  0  0  0  0  0  0  0
    0.8514   -5.2587    0.0000 O   0  0  0  0  0  0  0  0  0  0  0  0
   -0.1328   -5.0815    0.0000 C   0  0  0  0  0  0  0  0  0  0  0  0
   -0.7794   -5.8443    0.0000 C   0  0  0  0  0  0  0  0  0  0  0  0
   -1.7644   -5.6713    0.0000 C   0  0  0  0  0  0  0  0  0  0  0  0
   -2.1062   -4.7260    0.0000 C   0  0  0  0  0  0  0  0  0  0  0  0
   -1.4629   -3.9536    0.0000 C   0  0  0  0  0  0  0  0  0  0  0  0
   -0.4745   -4.1361    0.0000 C   0  0  0  0  0  0  0  0  0  0  0  0
    0.1722   -3.3734    0.0000 N   0  0  0  0  0  0  0  0  0  0  0  0
    1.1620   -3.5472    0.0000 C   0  0  0  0  0  0  0  0  0  0  0  0
    1.8120   -2.7806    0.0000 C   0  0  0  0  0  0  0  0  0  0  0  0
    1.4722   -1.8401    0.0000 N   0  0  0  0  0  0  0  0  0  0  0  0
    0.4888   -1.6587    0.0000 C   0  0  0  0  0  0  0  0  0  0  0  0
   -0.1612   -2.4253    0.0000 C   0  0  0  0  0  0  0  0  0  0  0  0
    2.6039   -0.5053    0.0000 C   0  0  2  0  0  0  0  0  0  0  0  0
    3.7207   -1.8526    0.0000 H   0  0  0  0  0  0  0  0  0  0  0  0
    3.4805   -0.0073    0.0000 C   0  0  1  0  0  0  0  0  0  0  0  0
    5.2055    0.2877    0.0000 H   0  0  0  0  0  0  0  0  0  0  0  0
    3.8168   -0.9490    0.0000 O   0  0  0  0  0  0  0  0  0  0  0  0
    3.4848    1.0014    0.0000 C   0  0  1  0  0  0  0  0  0  0  0  0
    4.4687    0.8229    0.0000 H   0  0  0  0  0  0  0  0  0  0  0  0
    3.8322    1.9391    0.0000 C   0  0  0  0  0  0  0  0  0  0  0  0
    2.6125    1.5125    0.0000 N   0  0  0  0  0  0  0  0  0  0  0  0
    2.6154    2.5125    0.0000 C   0  0  0  0  0  0  0  0  0  0  0  0
    3.4829    3.0100    0.0000 O   0  0  0  0  0  0  0  0  0  0  0  0
    1.7508    3.0150    0.0000 C   0  0  0  0  0  0  0  0  0  0  0  0
    0.8803    2.5124    0.0000 C   0  0  0  0  0  0  0  0  0  0  0  0
    0.0157    3.0149    0.0000 C   0  0  0  0  0  0  0  0  0  0  0  0
    0.0128    4.0149    0.0000 C   0  0  0  0  0  0  0  0  0  0  0  0
   -0.8540    4.5136    0.0000 C   0  0  0  0  0  0  0  0  0  0  0  0
    0.8833    4.5175    0.0000 C   0  0  0  0  0  0  0  0  0  0  0  0
    1.7567    4.0201    0.0000 C   0  0  0  0  0  0  0  0  0  0  0  0
    1.7414    1.0089    0.0000 C   0  0  0  0  0  0  0  0  0  0  0  0
    0.8707    1.5185    0.0000 C   0  0  0  0  0  0  0  0  0  0  0  0
    0.0000    1.0089    0.0000 C   0  0  0  0  0  0  0  0  0  0  0  0
    0.0000    0.0000    0.0000 C   0  0  0  0  0  0  0  0  0  0  0  0
    0.8707   -0.4993    0.0000 C   0  0  0  0  0  0  0  0  0  0  0  0
    1.7371    0.0000    0.0000 C   0  0  0  0  0  0  0  0  0  0  0  0
  1  2  1  0  0  0  0
  2  3  1  0  0  0  0
  3  8  2  0  0  0  0
  3  4  1  0  0  0  0
  4  5  2  0  0  0  0
  5  6  1  0  0  0  0
  6  7  2  0  0  0  0
  7  8  1  0  0  0  0
  8  9  1  0  0  0  0
  9 14  1  0  0  0  0
  9 10  1  0  0  0  0
 10 11  1  0  0  0  0
 11 12  1  0  0  0  0
 12 13  1  0  0  0  0
 13 14  1  0  0  0  0
 12 15  1  0  0  0  0
 15 16  1  6  0  0  0
 15 38  1  0  0  0  0
 15 17  1  0  0  0  0
 17 18  1  1  0  0  0
 17 19  1  0  0  0  0
 17 20  1  0  0  0  0
 20 21  1  1  0  0  0
 20 22  1  0  0  0  0
 20 23  1  0  0  0  0
 23 24  1  0  0  0  0
 24 25  2  0  0  0  0
 24 26  1  0  0  0  0
 26 32  2  0  0  0  0
 26 27  1  0  0  0  0
 27 28  2  0  0  0  0
 28 29  1  0  0  0  0
 29 30  1  0  0  0  0
 29 31  2  0  0  0  0
 31 32  1  0  0  0  0
 23 33  1  0  0  0  0
 33 38  2  0  0  0  0
 33 34  1  0  0  0  0
 34 35  2  0  0  0  0
 35 36  1  0  0  0  0
 36 37  2  0  0  0  0
 37 38  1  0  0  0  0
M  END
> <ID>
1591283

$$$$
1591284
  -OEChem-05171416412D

 30 32  0     1  0  0  0  0  0999 V2000
    1.1627   -3.5443    0.0000 C   0  0  0  0  0  0  0  0  0  0  0  0
    1.8094   -2.7815    0.0000 C   0  0  0  0  0  0  0  0  0  0  0  0
    1.4722   -1.8401    0.0000 N   0  0  3  0  0  0  0  0  0  0  0  0
    0.4883   -1.6614    0.0000 C   0  0  0  0  0  0  0  0  0  0  0  0
   -0.1584   -2.4242    0.0000 C   0  0  0  0  0  0  0  0  0  0  0  0
   -1.1423   -2.2455    0.0000 O   0  0  0  0  0  0  0  0  0  0  0  0
    2.6039   -0.5053    0.0000 C   0  0  1  0  0  0  0  0  0  0  0  0
    3.7207   -1.8526    0.0000 H   0  0  0  0  0  0  0  0  0  0  0  0
    3.4805   -0.0073    0.0000 C   0  0  1  0  0  0  0  0  0  0  0  0
    5.2055    0.2877    0.0000 H   0  0  0  0  0  0  0  0  0  0  0  0
    3.8168   -0.9490    0.0000 O   0  0  0  0  0  0  0  0  0  0  0  0
    3.4848    1.0014    0.0000 C   0  0  1  0  0  0  0  0  0  0  0  0
    4.4687    0.8229    0.0000 H   0  0  0  0  0  0  0  0  0  0  0  0
    3.8322    1.9391    0.0000 C   0  0  0  0  0  0  0  0  0  0  0  0
    2.6125    1.5125    0.0000 N   0  0  0  0  0  0  0  0  0  0  0  0
    2.6154    2.5125    0.0000 C   0  0  0  0  0  0  0  0  0  0  0  0
    3.4829    3.0100    0.0000 O   0  0  0  0  0  0  0  0  0  0  0  0
    1.7508    3.0150    0.0000 C   0  0  0  0  0  0  0  0  0  0  0  0
    0.8803    2.5124    0.0000 C   0  0  0  0  0  0  0  0  0  0  0  0
    0.0157    3.0149    0.0000 C   0  0  0  0  0  0  0  0  0  0  0  0
    0.0128    4.0149    0.0000 C   0  0  0  0  0  0  0  0  0  0  0  0
   -0.8540    4.5136    0.0000 C   0  0  0  0  0  0  0  0  0  0  0  0
    0.8833    4.5175    0.0000 C   0  0  0  0  0  0  0  0  0  0  0  0
    1.7567    4.0201    0.0000 C   0  0  0  0  0  0  0  0  0  0  0  0
    1.7414    1.0089    0.0000 C   0  0  0  0  0  0  0  0  0  0  0  0
    0.8707    1.5185    0.0000 C   0  0  0  0  0  0  0  0  0  0  0  0
    0.0000    1.0089    0.0000 C   0  0  0  0  0  0  0  0  0  0  0  0
    0.0000    0.0000    0.0000 C   0  0  0  0  0  0  0  0  0  0  0  0
    0.8707   -0.4993    0.0000 C   0  0  0  0  0  0  0  0  0  0  0  0
    1.7371    0.0000    0.0000 C   0  0  0  0  0  0  0  0  0  0  0  0
  1  2  1  0  0  0  0
  2  3  1  0  0  0  0
  3  4  1  0  0  0  0
  4  5  1  0  0  0  0
  5  6  1  0  0  0  0
  3  7  1  0  0  0  0
  7  8  1  1  0  0  0
  7 30  1  0  0  0  0
  7  9  1  0  0  0  0
  9 10  1  1  0  0  0
  9 11  1  0  0  0  0
  9 12  1  0  0  0  0
 12 13  1  1  0  0  0
 12 14  1  0  0  0  0
 12 15  1  0  0  0  0
 15 16  1  0  0  0  0
 16 17  2  0  0  0  0
 16 18  1  0  0  0  0
 18 24  2  0  0  0  0
 18 19  1  0  0  0  0
 19 20  2  0  0  0  0
 20 21  1  0  0  0  0
 21 22  1  0  0  0  0
 21 23  2  0  0  0  0
 23 24  1  0  0  0  0
 15 25  1  0  0  0  0
 25 30  2  0  0  0  0
 25 26  1  0  0  0  0
 26 27  2  0  0  0  0
 27 28  1  0  0  0  0
 28 29  2  0  0  0  0
 29 30  1  0  0  0  0
M  END
> <ID>
1591284

$$$$
1591285
  -OEChem-05171416412D

 35 38  0     1  0  0  0  0  0999 V2000
    3.8322    1.9391    0.0000 C   0  0  0  0  0  0  0  0  0  0  0  0
    3.4848    1.0014    0.0000 C   0  0  2  0  0  0  0  0  0  0  0  0
    5.2067    0.6889    0.0000 H   0  0  0  0  0  0  0  0  0  0  0  0
    3.4805   -0.0073    0.0000 C   0  0  2  0  0  0  0  0  0  0  0  0
    4.4662    0.1613    0.0000 H   0  0  0  0  0  0  0  0  0  0  0  0
    4.0691   -1.6554    0.0000 O   0  0  0  0  0  0  0  0  0  0  0  0
    2.6039   -0.5053    0.0000 C   0  0  2  0  0  0  0  0  0  0  0  0
    3.2421   -1.2752    0.0000 H   0  0  0  0  0  0  0  0  0  0  0  0
    1.4722   -1.8401    0.0000 N   0  0  3  0  0  0  0  0  0  0  0  0
    1.8094   -2.7815    0.0000 C   0  0  0  0  0  0  0  0  0  0  0  0
    2.7933   -2.9602    0.0000 C   0  0  0  0  0  0  0  0  0  0  0  0
    3.1305   -3.9016    0.0000 O   0  0  0  0  0  0  0  0  0  0  0  0
    0.4883   -1.6614    0.0000 C   0  0  0  0  0  0  0  0  0  0  0  0
   -0.1584   -2.4242    0.0000 C   0  0  0  0  0  0  0  0  0  0  0  0
    0.1833   -3.3695    0.0000 C   0  0  0  0  0  0  0  0  0  0  0  0
   -0.4633   -4.1323    0.0000 C   0  0  0  0  0  0  0  0  0  0  0  0
   -1.4483   -3.9594    0.0000 C   0  0  0  0  0  0  0  0  0  0  0  0
   -1.7901   -3.0141    0.0000 C   0  0  0  0  0  0  0  0  0  0  0  0
   -1.1469   -2.2417    0.0000 C   0  0  0  0  0  0  0  0  0  0  0  0
    1.7371   -0.0000    0.0000 C   0  0  0  0  0  0  0  0  0  0  0  0
    0.8707   -0.4993    0.0000 C   0  0  0  0  0  0  0  0  0  0  0  0
    0.0000    0.0000    0.0000 C   0  0  0  0  0  0  0  0  0  0  0  0
   -0.0000    1.0089    0.0000 C   0  0  0  0  0  0  0  0  0  0  0  0
    0.8707    1.5185    0.0000 C   0  0  0  0  0  0  0  0  0  0  0  0
    1.7414    1.0089    0.0000 C   0  0  0  0  0  0  0  0  0  0  0  0
    2.6125    1.5125    0.0000 N   0  0  0  0  0  0  0  0  0  0  0  0
    2.6154    2.5125    0.0000 C   0  0  0  0  0  0  0  0  0  0  0  0
    3.4829    3.0100    0.0000 O   0  0  0  0  0  0  0  0  0  0  0  0
    1.7508    3.0150    0.0000 C   0  0  0  0  0  0  0  0  0  0  0  0
    0.8803    2.5124    0.0000 C   0  0  0  0  0  0  0  0  0  0  0  0
    0.0157    3.0149    0.0000 C   0  0  0  0  0  0  0  0  0  0  0  0
    0.0128    4.0149    0.0000 C   0  0  0  0  0  0  0  0  0  0  0  0
   -0.8540    4.5136    0.0000 C   0  0  0  0  0  0  0  0  0  0  0  0
    0.8833    4.5175    0.0000 C   0  0  0  0  0  0  0  0  0  0  0  0
    1.7567    4.0201    0.0000 C   0  0  0  0  0  0  0  0  0  0  0  0
  1  2  1  0  0  0  0
  2  3  1  1  0  0  0
  2 26  1  0  0  0  0
  2  4  1  0  0  0  0
  4  5  1  1  0  0  0
  4  6  1  0  0  0  0
  4  7  1  0  0  0  0
  7  8  1  1  0  0  0
  7  9  1  0  0  0  0
  9 10  1  0  0  0  0
 10 11  1  0  0  0  0
 11 12  1  0  0  0  0
  9 13  1  0  0  0  0
 13 14  1  0  0  0  0
 14 19  2  0  0  0  0
 14 15  1  0  0  0  0
 15 16  2  0  0  0  0
 16 17  1  0  0  0  0
 17 18  2  0  0  0  0
 18 19  1  0  0  0  0
  7 20  1  0  0  0  0
 20 25  2  0  0  0  0
 20 21  1  0  0  0  0
 21 22  2  0  0  0  0
 22 23  1  0  0  0  0
 23 24  2  0  0  0  0
 24 25  1  0  0  0  0
 25 26  1  0  0  0  0
 26 27  1  0  0  0  0
 27 28  2  0  0  0  0
 27 29  1  0  0  0  0
 29 35  2  0  0  0  0
 29 30  1  0  0  0  0
 30 31  2  0  0  0  0
 31 32  1  0  0  0  0
 32 33  1  0  0  0  0
 32 34  2  0  0  0  0
 34 35  1  0  0  0  0
M  END
> <ID>
1591285

$$$$
1591286
  -OEChem-05171416412D

 32 35  0     1  0  0  0  0  0999 V2000
    3.8322    1.9391    0.0000 C   0  0  0  0  0  0  0  0  0  0  0  0
    3.4848    1.0014    0.0000 C   0  0  2  0  0  0  0  0  0  0  0  0
    5.2067    0.6889    0.0000 H   0  0  0  0  0  0  0  0  0  0  0  0
    3.4805   -0.0073    0.0000 C   0  0  2  0  0  0  0  0  0  0  0  0
    4.4662    0.1613    0.0000 H   0  0  0  0  0  0  0  0  0  0  0  0
    4.0691   -1.6554    0.0000 O   0  0  0  0  0  0  0  0  0  0  0  0
    2.6039   -0.5053    0.0000 C   0  0  1  0  0  0  0  0  0  0  0  0
    3.2421   -1.2752    0.0000 H   0  0  0  0  0  0  0  0  0  0  0  0
    1.9572   -1.2680    0.0000 N   0  0  0  0  0  0  0  0  0  0  0  0
    2.2944   -2.2095    0.0000 C   0  0  0  0  0  0  0  0  0  0  0  0
    1.6477   -2.9722    0.0000 C   0  0  0  0  0  0  0  0  0  0  0  0
    1.9895   -3.9175    0.0000 C   0  0  0  0  0  0  0  0  0  0  0  0
    1.3428   -4.6803    0.0000 C   0  0  0  0  0  0  0  0  0  0  0  0
    0.3578   -4.5074    0.0000 C   0  0  0  0  0  0  0  0  0  0  0  0
    0.0161   -3.5621    0.0000 C   0  0  0  0  0  0  0  0  0  0  0  0
    0.6593   -2.7897    0.0000 C   0  0  0  0  0  0  0  0  0  0  0  0
    1.7371   -0.0000    0.0000 C   0  0  0  0  0  0  0  0  0  0  0  0
    0.8707   -0.4993    0.0000 C   0  0  0  0  0  0  0  0  0  0  0  0
    0.0000    0.0000    0.0000 C   0  0  0  0  0  0  0  0  0  0  0  0
   -0.0000    1.0089    0.0000 C   0  0  0  0  0  0  0  0  0  0  0  0
    0.8707    1.5185    0.0000 C   0  0  0  0  0  0  0  0  0  0  0  0
    1.7414    1.0089    0.0000 C   0  0  0  0  0  0  0  0  0  0  0  0
    2.6125    1.5125    0.0000 N   0  0  0  0  0  0  0  0  0  0  0  0
    2.6154    2.5125    0.0000 C   0  0  0  0  0  0  0  0  0  0  0  0
    3.4829    3.0100    0.0000 O   0  0  0  0  0  0  0  0  0  0  0  0
    1.7508    3.0150    0.0000 C   0  0  0  0  0  0  0  0  0  0  0  0
    0.8803    2.5124    0.0000 C   0  0  0  0  0  0  0  0  0  0  0  0
    0.0157    3.0149    0.0000 C   0  0  0  0  0  0  0  0  0  0  0  0
    0.0128    4.0149    0.0000 C   0  0  0  0  0  0  0  0  0  0  0  0
   -0.8540    4.5136    0.0000 C   0  0  0  0  0  0  0  0  0  0  0  0
    0.8833    4.5175    0.0000 C   0  0  0  0  0  0  0  0  0  0  0  0
    1.7567    4.0201    0.0000 C   0  0  0  0  0  0  0  0  0  0  0  0
  1  2  1  0  0  0  0
  2  3  1  1  0  0  0
  2 23  1  0  0  0  0
  2  4  1  0  0  0  0
  4  5  1  1  0  0  0
  4  6  1  0  0  0  0
  4  7  1  0  0  0  0
  7  8  1  6  0  0  0
  7  9  1  0  0  0  0
  9 10  1  0  0  0  0
 10 11  1  0  0  0  0
 11 16  2  0  0  0  0
 11 12  1  0  0  0  0
 12 13  2  0  0  0  0
 13 14  1  0  0  0  0
 14 15  2  0  0  0  0
 15 16  1  0  0  0  0
  7 17  1  0  0  0  0
 17 22  2  0  0  0  0
 17 18  1  0  0  0  0
 18 19  2  0  0  0  0
 19 20  1  0  0  0  0
 20 21  2  0  0  0  0
 21 22  1  0  0  0  0
 22 23  1  0  0  0  0
 23 24  1  0  0  0  0
 24 25  2  0  0  0  0
 24 26  1  0  0  0  0
 26 32  2  0  0  0  0
 26 27  1  0  0  0  0
 27 28  2  0  0  0  0
 28 29  1  0  0  0  0
 29 30  1  0  0  0  0
 29 31  2  0  0  0  0
 31 32  1  0  0  0  0
M  END
> <ID>
1591286

$$$$
1591287
  -OEChem-05171416412D

 37 41  0     1  0  0  0  0  0999 V2000
    3.8322    1.9391    0.0000 C   0  0  0  0  0  0  0  0  0  0  0  0
    3.4848    1.0014    0.0000 C   0  0  2  0  0  0  0  0  0  0  0  0
    5.2067    0.6889    0.0000 H   0  0  0  0  0  0  0  0  0  0  0  0
    3.4805   -0.0073    0.0000 C   0  0  2  0  0  0  0  0  0  0  0  0
    4.4662    0.1613    0.0000 H   0  0  0  0  0  0  0  0  0  0  0  0
    4.0691   -1.6554    0.0000 O   0  0  0  0  0  0  0  0  0  0  0  0
    2.6039   -0.5053    0.0000 C   0  0  1  0  0  0  0  0  0  0  0  0
    3.2421   -1.2752    0.0000 H   0  0  0  0  0  0  0  0  0  0  0  0
    1.4722   -1.8401    0.0000 N   0  0  0  0  0  0  0  0  0  0  0  0
    0.4824   -1.6663    0.0000 C   0  0  0  0  0  0  0  0  0  0  0  0
   -0.1676   -2.4329    0.0000 C   0  0  0  0  0  0  0  0  0  0  0  0
    0.1722   -3.3734    0.0000 N   0  0  0  0  0  0  0  0  0  0  0  0
   -0.4745   -4.1361    0.0000 C   0  0  0  0  0  0  0  0  0  0  0  0
   -0.1373   -5.0776    0.0000 C   0  0  0  0  0  0  0  0  0  0  0  0
    0.8523   -5.2543    0.0000 C   0  0  0  0  0  0  0  0  0  0  0  0
    1.1895   -6.1957    0.0000 C   0  0  0  0  0  0  0  0  0  0  0  0
    0.5473   -6.9622    0.0000 C   0  0  0  0  0  0  0  0  0  0  0  0
   -0.4423   -6.7855    0.0000 C   0  0  0  0  0  0  0  0  0  0  0  0
   -0.7896   -5.8423    0.0000 C   0  0  0  0  0  0  0  0  0  0  0  0
    1.1556   -3.5548    0.0000 C   0  0  0  0  0  0  0  0  0  0  0  0
    1.8056   -2.7881    0.0000 C   0  0  0  0  0  0  0  0  0  0  0  0
    1.7371   -0.0000    0.0000 C   0  0  0  0  0  0  0  0  0  0  0  0
    0.8707   -0.4993    0.0000 C   0  0  0  0  0  0  0  0  0  0  0  0
    0.0000    0.0000    0.0000 C   0  0  0  0  0  0  0  0  0  0  0  0
   -0.0000    1.0089    0.0000 C   0  0  0  0  0  0  0  0  0  0  0  0
    0.8707    1.5185    0.0000 C   0  0  0  0  0  0  0  0  0  0  0  0
    1.7414    1.0089    0.0000 C   0  0  0  0  0  0  0  0  0  0  0  0
    2.6125    1.5125    0.0000 N   0  0  0  0  0  0  0  0  0  0  0  0
    2.6154    2.5125    0.0000 C   0  0  0  0  0  0  0  0  0  0  0  0
    3.4829    3.0100    0.0000 O   0  0  0  0  0  0  0  0  0  0  0  0
    1.7508    3.0150    0.0000 C   0  0  0  0  0  0  0  0  0  0  0  0
    0.8803    2.5124    0.0000 C   0  0  0  0  0  0  0  0  0  0  0  0
    0.0157    3.0149    0.0000 C   0  0  0  0  0  0  0  0  0  0  0  0
    0.0128    4.0149    0.0000 C   0  0  0  0  0  0  0  0  0  0  0  0
   -0.8540    4.5136    0.0000 C   0  0  0  0  0  0  0  0  0  0  0  0
    0.8833    4.5175    0.0000 C   0  0  0  0  0  0  0  0  0  0  0  0
    1.7567    4.0201    0.0000 C   0  0  0  0  0  0  0  0  0  0  0  0
  1  2  1  0  0  0  0
  2  3  1  1  0  0  0
  2 28  1  0  0  0  0
  2  4  1  0  0  0  0
  4  5  1  1  0  0  0
  4  6  1  0  0  0  0
  4  7  1  0  0  0  0
  7  8  1  6  0  0  0
  7  9  1  0  0  0  0
  9 21  1  0  0  0  0
  9 10  1  0  0  0  0
 10 11  1  0  0  0  0
 11 12  1  0  0  0  0
 12 13  1  0  0  0  0
 13 14  1  0  0  0  0
 14 19  2  0  0  0  0
 14 15  1  0  0  0  0
 15 16  2  0  0  0  0
 16 17  1  0  0  0  0
 17 18  2  0  0  0  0
 18 19  1  0  0  0  0
 12 20  1  0  0  0  0
 20 21  1  0  0  0  0
  7 22  1  0  0  0  0
 22 27  2  0  0  0  0
 22 23  1  0  0  0  0
 23 24  2  0  0  0  0
 24 25  1  0  0  0  0
 25 26  2  0  0  0  0
 26 27  1  0  0  0  0
 27 28  1  0  0  0  0
 28 29  1  0  0  0  0
 29 30  2  0  0  0  0
 29 31  1  0  0  0  0
 31 37  2  0  0  0  0
 31 32  1  0  0  0  0
 32 33  2  0  0  0  0
 33 34  1  0  0  0  0
 34 35  1  0  0  0  0
 34 36  2  0  0  0  0
 36 37  1  0  0  0  0
M  END
> <ID>
1591287

$$$$
1591288
  -OEChem-05171416412D

 29 32  0     1  0  0  0  0  0999 V2000
    3.8322    1.9391    0.0000 C   0  0  0  0  0  0  0  0  0  0  0  0
    3.4848    1.0014    0.0000 C   0  0  2  0  0  0  0  0  0  0  0  0
    5.2067    0.6889    0.0000 H   0  0  0  0  0  0  0  0  0  0  0  0
    3.4805   -0.0073    0.0000 C   0  0  2  0  0  0  0  0  0  0  0  0
    4.4662    0.1613    0.0000 H   0  0  0  0  0  0  0  0  0  0  0  0
    4.0691   -1.6554    0.0000 O   0  0  0  0  0  0  0  0  0  0  0  0
    2.6039   -0.5053    0.0000 C   0  0  2  0  0  0  0  0  0  0  0  0
    3.2421   -1.2752    0.0000 H   0  0  0  0  0  0  0  0  0  0  0  0
    1.4722   -1.8401    0.0000 N   0  0  0  0  0  0  0  0  0  0  0  0
    0.4744   -1.7672    0.0000 C   0  0  0  0  0  0  0  0  0  0  0  0
    0.0912   -2.6909    0.0000 C   0  0  0  0  0  0  0  0  0  0  0  0
    0.8541   -3.3397    0.0000 C   0  0  0  0  0  0  0  0  0  0  0  0
    1.7083   -2.8166    0.0000 C   0  0  0  0  0  0  0  0  0  0  0  0
    1.7371   -0.0000    0.0000 C   0  0  0  0  0  0  0  0  0  0  0  0
    0.8707   -0.4993    0.0000 C   0  0  0  0  0  0  0  0  0  0  0  0
    0.0000    0.0000    0.0000 C   0  0  0  0  0  0  0  0  0  0  0  0
   -0.0000    1.0089    0.0000 C   0  0  0  0  0  0  0  0  0  0  0  0
    0.8707    1.5185    0.0000 C   0  0  0  0  0  0  0  0  0  0  0  0
    1.7414    1.0089    0.0000 C   0  0  0  0  0  0  0  0  0  0  0  0
    2.6125    1.5125    0.0000 N   0  0  0  0  0  0  0  0  0  0  0  0
    2.6154    2.5125    0.0000 C   0  0  0  0  0  0  0  0  0  0  0  0
    3.4829    3.0100    0.0000 O   0  0  0  0  0  0  0  0  0  0  0  0
    1.7508    3.0150    0.0000 C   0  0  0  0  0  0  0  0  0  0  0  0
    0.8803    2.5124    0.0000 C   0  0  0  0  0  0  0  0  0  0  0  0
    0.0157    3.0149    0.0000 C   0  0  0  0  0  0  0  0  0  0  0  0
    0.0128    4.0149    0.0000 C   0  0  0  0  0  0  0  0  0  0  0  0
   -0.8540    4.5136    0.0000 C   0  0  0  0  0  0  0  0  0  0  0  0
    0.8833    4.5175    0.0000 C   0  0  0  0  0  0  0  0  0  0  0  0
    1.7567    4.0201    0.0000 C   0  0  0  0  0  0  0  0  0  0  0  0
  1  2  1  0  0  0  0
  2  3  1  1  0  0  0
  2 20  1  0  0  0  0
  2  4  1  0  0  0  0
  4  5  1  1  0  0  0
  4  6  1  0  0  0  0
  4  7  1  0  0  0  0
  7  8  1  1  0  0  0
  7  9  1  0  0  0  0
  9 13  1  0  0  0  0
  9 10  1  0  0  0  0
 10 11  1  0  0  0  0
 11 12  1  0  0  0  0
 12 13  1  0  0  0  0
  7 14  1  0  0  0  0
 14 19  2  0  0  0  0
 14 15  1  0  0  0  0
 15 16  2  0  0  0  0
 16 17  1  0  0  0  0
 17 18  2  0  0  0  0
 18 19  1  0  0  0  0
 19 20  1  0  0  0  0
 20 21  1  0  0  0  0
 21 22  2  0  0  0  0
 21 23  1  0  0  0  0
 23 29  2  0  0  0  0
 23 24  1  0  0  0  0
 24 25  2  0  0  0  0
 25 26  1  0  0  0  0
 26 27  1  0  0  0  0
 26 28  2  0  0  0  0
 28 29  1  0  0  0  0
M  END
> <ID>
1591288

$$$$
1591289
  -OEChem-05171416412D

 29 32  0     1  0  0  0  0  0999 V2000
    3.8322    1.9391    0.0000 C   0  0  0  0  0  0  0  0  0  0  0  0
    3.4848    1.0014    0.0000 C   0  0  1  0  0  0  0  0  0  0  0  0
    5.2067    0.6889    0.0000 H   0  0  0  0  0  0  0  0  0  0  0  0
    2.6125    1.5125    0.0000 N   0  0  0  0  0  0  0  0  0  0  0  0
    1.7414    1.0089    0.0000 C   0  0  0  0  0  0  0  0  0  0  0  0
    0.8707    1.5185    0.0000 C   0  0  0  0  0  0  0  0  0  0  0  0
    0.0000    1.0089    0.0000 C   0  0  0  0  0  0  0  0  0  0  0  0
    0.0000    0.0000    0.0000 C   0  0  0  0  0  0  0  0  0  0  0  0
    0.8707   -0.4993    0.0000 C   0  0  0  0  0  0  0  0  0  0  0  0
    1.7371    0.0000    0.0000 C   0  0  0  0  0  0  0  0  0  0  0  0
    2.6039   -0.5053    0.0000 C   0  0  2  0  0  0  0  0  0  0  0  0
    3.7207   -1.8526    0.0000 H   0  0  0  0  0  0  0  0  0  0  0  0
    3.4805   -0.0073    0.0000 C   0  0  1  0  0  0  0  0  0  0  0  0
    4.4662    0.1613    0.0000 H   0  0  0  0  0  0  0  0  0  0  0  0
    3.8168   -0.9490    0.0000 O   0  0  0  0  0  0  0  0  0  0  0  0
    4.8006   -1.1287    0.0000 C   0  0  0  0  0  0  0  0  0  0  0  0
    5.4480   -0.3665    0.0000 O   0  0  0  0  0  0  0  0  0  0  0  0
    5.1369   -2.0704    0.0000 C   0  0  0  0  0  0  0  0  0  0  0  0
    6.1263   -2.2480    0.0000 C   0  0  0  0  0  0  0  0  0  0  0  0
    6.4626   -3.1898    0.0000 C   0  0  0  0  0  0  0  0  0  0  0  0
    5.8197   -3.9557    0.0000 C   0  0  0  0  0  0  0  0  0  0  0  0
    6.1601   -4.8960    0.0000 C   0  0  0  0  0  0  0  0  0  0  0  0
    4.8303   -3.7781    0.0000 C   0  0  0  0  0  0  0  0  0  0  0  0
    4.4839   -2.8345    0.0000 C   0  0  0  0  0  0  0  0  0  0  0  0
    1.4722   -1.8401    0.0000 N   0  0  0  0  0  0  0  0  0  0  0  0
    0.4744   -1.7672    0.0000 C   0  0  0  0  0  0  0  0  0  0  0  0
    0.0912   -2.6909    0.0000 C   0  0  0  0  0  0  0  0  0  0  0  0
    0.8541   -3.3397    0.0000 C   0  0  0  0  0  0  0  0  0  0  0  0
    1.7083   -2.8166    0.0000 C   0  0  0  0  0  0  0  0  0  0  0  0
  1  2  1  0  0  0  0
  2  3  1  1  0  0  0
  2 13  1  0  0  0  0
  2  4  1  0  0  0  0
  4  5  1  0  0  0  0
  5 10  2  0  0  0  0
  5  6  1  0  0  0  0
  6  7  2  0  0  0  0
  7  8  1  0  0  0  0
  8  9  2  0  0  0  0
  9 10  1  0  0  0  0
 10 11  1  0  0  0  0
 11 12  1  1  0  0  0
 11 13  1  0  0  0  0
 13 14  1  1  0  0  0
 13 15  1  0  0  0  0
 15 16  1  0  0  0  0
 16 17  2  0  0  0  0
 16 18  1  0  0  0  0
 18 24  2  0  0  0  0
 18 19  1  0  0  0  0
 19 20  2  0  0  0  0
 20 21  1  0  0  0  0
 21 22  1  0  0  0  0
 21 23  2  0  0  0  0
 23 24  1  0  0  0  0
 11 25  1  0  0  0  0
 25 29  1  0  0  0  0
 25 26  1  0  0  0  0
 26 27  1  0  0  0  0
 27 28  1  0  0  0  0
 28 29  1  0  0  0  0
M  END
> <ID>
1591289

$$$$
1591290
  -OEChem-05171416412D

 36 38  0     1  0  0  0  0  0999 V2000
   -3.5813   -3.7830    0.0000 C   0  0  0  0  0  0  0  0  0  0  0  0
   -2.5974   -3.9617    0.0000 C   0  0  0  0  0  0  0  0  0  0  0  0
   -1.9507   -3.1989    0.0000 N   0  0  0  0  0  0  0  0  0  0  0  0
   -2.2879   -2.2575    0.0000 C   0  0  0  0  0  0  0  0  0  0  0  0
   -3.2718   -2.0788    0.0000 C   0  0  0  0  0  0  0  0  0  0  0  0
   -0.9668   -3.3776    0.0000 C   0  0  0  0  0  0  0  0  0  0  0  0
   -0.3201   -2.6149    0.0000 C   0  0  0  0  0  0  0  0  0  0  0  0
    0.6638   -2.7935    0.0000 C   0  0  0  0  0  0  0  0  0  0  0  0
    1.3105   -2.0308    0.0000 C   0  0  2  0  0  0  0  0  0  0  0  0
    0.5478   -1.3841    0.0000 H   0  0  0  0  0  0  0  0  0  0  0  0
    2.0733   -2.6775    0.0000 C   0  0  0  0  0  0  0  0  0  0  0  0
    1.9572   -1.2680    0.0000 N   0  0  0  0  0  0  0  0  0  0  0  0
    2.6039   -0.5053    0.0000 C   0  0  1  0  0  0  0  0  0  0  0  0
    3.7207   -1.8526    0.0000 H   0  0  0  0  0  0  0  0  0  0  0  0
    3.4805   -0.0073    0.0000 C   0  0  1  0  0  0  0  0  0  0  0  0
    5.2055    0.2877    0.0000 H   0  0  0  0  0  0  0  0  0  0  0  0
    3.8168   -0.9490    0.0000 O   0  0  0  0  0  0  0  0  0  0  0  0
    3.4848    1.0014    0.0000 C   0  0  1  0  0  0  0  0  0  0  0  0
    4.4687    0.8229    0.0000 H   0  0  0  0  0  0  0  0  0  0  0  0
    3.8322    1.9391    0.0000 C   0  0  0  0  0  0  0  0  0  0  0  0
    2.6125    1.5125    0.0000 N   0  0  0  0  0  0  0  0  0  0  0  0
    2.6154    2.5125    0.0000 C   0  0  0  0  0  0  0  0  0  0  0  0
    3.4829    3.0100    0.0000 O   0  0  0  0  0  0  0  0  0  0  0  0
    1.7508    3.0150    0.0000 C   0  0  0  0  0  0  0  0  0  0  0  0
    0.8803    2.5124    0.0000 C   0  0  0  0  0  0  0  0  0  0  0  0
    0.0157    3.0149    0.0000 C   0  0  0  0  0  0  0  0  0  0  0  0
    0.0128    4.0149    0.0000 C   0  0  0  0  0  0  0  0  0  0  0  0
   -0.8540    4.5136    0.0000 C   0  0  0  0  0  0  0  0  0  0  0  0
    0.8833    4.5175    0.0000 C   0  0  0  0  0  0  0  0  0  0  0  0
    1.7567    4.0201    0.0000 C   0  0  0  0  0  0  0  0  0  0  0  0
    1.7414    1.0089    0.0000 C   0  0  0  0  0  0  0  0  0  0  0  0
    0.8707    1.5185    0.0000 C   0  0  0  0  0  0  0  0  0  0  0  0
    0.0000    1.0089    0.0000 C   0  0  0  0  0  0  0  0  0  0  0  0
    0.0000    0.0000    0.0000 C   0  0  0  0  0  0  0  0  0  0  0  0
    0.8707   -0.4993    0.0000 C   0  0  0  0  0  0  0  0  0  0  0  0
    1.7371    0.0000    0.0000 C   0  0  0  0  0  0  0  0  0  0  0  0
  1  2  1  0  0  0  0
  2  3  1  0  0  0  0
  3  4  1  0  0  0  0
  4  5  1  0  0  0  0
  3  6  1  0  0  0  0
  6  7  1  0  0  0  0
  7  8  1  0  0  0  0
  8  9  1  0  0  0  0
  9 10  1  6  0  0  0
  9 11  1  0  0  0  0
  9 12  1  0  0  0  0
 12 13  1  0  0  0  0
 13 14  1  1  0  0  0
 13 36  1  0  0  0  0
 13 15  1  0  0  0  0
 15 16  1  1  0  0  0
 15 17  1  0  0  0  0
 15 18  1  0  0  0  0
 18 19  1  1  0  0  0
 18 20  1  0  0  0  0
 18 21  1  0  0  0  0
 21 22  1  0  0  0  0
 22 23  2  0  0  0  0
 22 24  1  0  0  0  0
 24 30  2  0  0  0  0
 24 25  1  0  0  0  0
 25 26  2  0  0  0  0
 26 27  1  0  0  0  0
 27 28  1  0  0  0  0
 27 29  2  0  0  0  0
 29 30  1  0  0  0  0
 21 31  1  0  0  0  0
 31 36  2  0  0  0  0
 31 32  1  0  0  0  0
 32 33  2  0  0  0  0
 33 34  1  0  0  0  0
 34 35  2  0  0  0  0
 35 36  1  0  0  0  0
M  END
> <ID>
1591290

$$$$
1591291
  -OEChem-05171416412D

 36 38  0     1  0  0  0  0  0999 V2000
    3.6433   -5.9752    0.0000 C   0  0  0  0  0  0  0  0  0  0  0  0
    3.3060   -5.0338    0.0000 C   0  0  0  0  0  0  0  0  0  0  0  0
    2.3221   -4.8551    0.0000 N   0  0  0  0  0  0  0  0  0  0  0  0
    1.6754   -5.6178    0.0000 C   0  0  0  0  0  0  0  0  0  0  0  0
    2.0127   -6.5593    0.0000 C   0  0  0  0  0  0  0  0  0  0  0  0
    1.9849   -3.9137    0.0000 C   0  0  0  0  0  0  0  0  0  0  0  0
    1.0010   -3.7350    0.0000 C   0  0  0  0  0  0  0  0  0  0  0  0
    0.6638   -2.7935    0.0000 C   0  0  0  0  0  0  0  0  0  0  0  0
    1.3105   -2.0308    0.0000 C   0  0  2  0  0  0  0  0  0  0  0  0
    0.5478   -1.3841    0.0000 H   0  0  0  0  0  0  0  0  0  0  0  0
    2.0733   -2.6775    0.0000 C   0  0  0  0  0  0  0  0  0  0  0  0
    1.9572   -1.2680    0.0000 N   0  0  0  0  0  0  0  0  0  0  0  0
    2.6039   -0.5053    0.0000 C   0  0  1  0  0  0  0  0  0  0  0  0
    3.7207   -1.8526    0.0000 H   0  0  0  0  0  0  0  0  0  0  0  0
    3.4805   -0.0073    0.0000 C   0  0  1  0  0  0  0  0  0  0  0  0
    4.4662    0.1613    0.0000 H   0  0  0  0  0  0  0  0  0  0  0  0
    3.8168   -0.9490    0.0000 O   0  0  0  0  0  0  0  0  0  0  0  0
    4.8006   -1.1287    0.0000 C   0  0  0  0  0  0  0  0  0  0  0  0
    5.4480   -0.3665    0.0000 O   0  0  0  0  0  0  0  0  0  0  0  0
    5.1369   -2.0704    0.0000 C   0  0  0  0  0  0  0  0  0  0  0  0
    6.1263   -2.2480    0.0000 C   0  0  0  0  0  0  0  0  0  0  0  0
    6.4626   -3.1898    0.0000 C   0  0  0  0  0  0  0  0  0  0  0  0
    5.8197   -3.9557    0.0000 C   0  0  0  0  0  0  0  0  0  0  0  0
    6.1601   -4.8960    0.0000 C   0  0  0  0  0  0  0  0  0  0  0  0
    4.8303   -3.7781    0.0000 C   0  0  0  0  0  0  0  0  0  0  0  0
    4.4839   -2.8345    0.0000 C   0  0  0  0  0  0  0  0  0  0  0  0
    3.4848    1.0014    0.0000 C   0  0  1  0  0  0  0  0  0  0  0  0
    5.2067    0.6889    0.0000 H   0  0  0  0  0  0  0  0  0  0  0  0
    3.8322    1.9391    0.0000 C   0  0  0  0  0  0  0  0  0  0  0  0
    2.6125    1.5125    0.0000 N   0  0  0  0  0  0  0  0  0  0  0  0
    1.7414    1.0089    0.0000 C   0  0  0  0  0  0  0  0  0  0  0  0
    0.8707    1.5185    0.0000 C   0  0  0  0  0  0  0  0  0  0  0  0
    0.0000    1.0089    0.0000 C   0  0  0  0  0  0  0  0  0  0  0  0
    0.0000    0.0000    0.0000 C   0  0  0  0  0  0  0  0  0  0  0  0
    0.8707   -0.4993    0.0000 C   0  0  0  0  0  0  0  0  0  0  0  0
    1.7371    0.0000    0.0000 C   0  0  0  0  0  0  0  0  0  0  0  0
  1  2  1  0  0  0  0
  2  3  1  0  0  0  0
  3  4  1  0  0  0  0
  4  5  1  0  0  0  0
  3  6  1  0  0  0  0
  6  7  1  0  0  0  0
  7  8  1  0  0  0  0
  8  9  1  0  0  0  0
  9 10  1  6  0  0  0
  9 11  1  0  0  0  0
  9 12  1  0  0  0  0
 12 13  1  0  0  0  0
 13 14  1  1  0  0  0
 13 36  1  0  0  0  0
 13 15  1  0  0  0  0
 15 16  1  1  0  0  0
 15 17  1  0  0  0  0
 17 18  1  0  0  0  0
 18 19  2  0  0  0  0
 18 20  1  0  0  0  0
 20 26  2  0  0  0  0
 20 21  1  0  0  0  0
 21 22  2  0  0  0  0
 22 23  1  0  0  0  0
 23 24  1  0  0  0  0
 23 25  2  0  0  0  0
 25 26  1  0  0  0  0
 15 27  1  0  0  0  0
 27 28  1  1  0  0  0
 27 29  1  0  0  0  0
 27 30  1  0  0  0  0
 30 31  1  0  0  0  0
 31 36  2  0  0  0  0
 31 32  1  0  0  0  0
 32 33  2  0  0  0  0
 33 34  1  0  0  0  0
 34 35  2  0  0  0  0
 35 36  1  0  0  0  0
M  END
> <ID>
1591291

$$$$
1591292
  -OEChem-05171416412D

 30 31  0     1  0  0  0  0  0999 V2000
    5.9892   -3.2130    0.0000 C   0  0  0  0  0  0  0  0  0  0  0  0
    5.0039   -3.3835    0.0000 C   0  0  0  0  0  0  0  0  0  0  0  0
    4.6589   -4.3221    0.0000 C   0  0  0  0  0  0  0  0  0  0  0  0
    4.3635   -2.6154    0.0000 C   0  0  2  0  0  0  0  0  0  0  0  0
    5.1316   -1.9751    0.0000 H   0  0  0  0  0  0  0  0  0  0  0  0
    3.7232   -1.8474    0.0000 N   0  0  0  0  0  0  0  0  0  0  0  0
    2.6026   -0.5032    0.0000 C   0  0  2  0  0  0  0  0  0  0  0  0
    1.9580   -1.2678    0.0000 H   0  0  0  0  0  0  0  0  0  0  0  0
    3.4761   -0.0036    0.0000 C   0  0  1  0  0  0  0  0  0  0  0  0
    5.2002    0.2965    0.0000 H   0  0  0  0  0  0  0  0  0  0  0  0
    3.8152   -0.9444    0.0000 O   0  0  0  0  0  0  0  0  0  0  0  0
    3.4774    1.0034    0.0000 C   0  0  0  0  0  0  0  0  0  0  0  0
    3.8219    1.9422    0.0000 C   0  0  0  0  0  0  0  0  0  0  0  0
    4.4619    0.8278    0.0000 C   0  0  0  0  0  0  0  0  0  0  0  0
    2.6052    1.5109    0.0000 O   0  0  0  0  0  0  0  0  0  0  0  0
    1.7374    1.0057    0.0000 C   0  0  0  0  0  0  0  0  0  0  0  0
    0.8680    1.5138    0.0000 C   0  0  0  0  0  0  0  0  0  0  0  0
    0.0000    1.0057    0.0000 C   0  0  0  0  0  0  0  0  0  0  0  0
    0.0000    0.0000    0.0000 C   0  0  0  0  0  0  0  0  0  0  0  0
    0.8680   -0.4978    0.0000 C   0  0  0  0  0  0  0  0  0  0  0  0
    1.7360   -0.0012    0.0000 C   0  0  0  0  0  0  0  0  0  0  0  0
   -0.8653   -0.5013    0.0000 C   0  0  0  0  0  0  0  0  0  0  0  0
   -1.7306   -1.0025    0.0000 N   0  0  0  0  0  0  0  0  0  0  0  0
    3.5955   -3.2558    0.0000 C   0  0  0  0  0  0  0  0  0  0  0  0
    2.6569   -2.9108    0.0000 O   0  0  0  0  0  0  0  0  0  0  0  0
    3.7660   -4.2411    0.0000 O   0  0  0  0  0  0  0  0  0  0  0  0
    2.9979   -4.8815    0.0000 C   0  0  0  0  0  0  0  0  0  0  0  0
    3.6382   -5.6496    0.0000 C   0  0  0  0  0  0  0  0  0  0  0  0
    2.3575   -4.1134    0.0000 C   0  0  0  0  0  0  0  0  0  0  0  0
    2.2298   -5.5218    0.0000 C   0  0  0  0  0  0  0  0  0  0  0  0
  1  2  1  0  0  0  0
  2  3  1  0  0  0  0
  2  4  1  0  0  0  0
  4  5  1  6  0  0  0
  4  6  1  0  0  0  0
  6  7  1  0  0  0  0
  7  8  1  6  0  0  0
  7 21  1  0  0  0  0
  7  9  1  0  0  0  0
  9 10  1  1  0  0  0
  9 11  1  0  0  0  0
  9 12  1  0  0  0  0
 12 13  1  0  0  0  0
 12 14  1  0  0  0  0
 12 15  1  0  0  0  0
 15 16  1  0  0  0  0
 16 21  2  0  0  0  0
 16 17  1  0  0  0  0
 17 18  2  0  0  0  0
 18 19  1  0  0  0  0
 19 20  2  0  0  0  0
 20 21  1  0  0  0  0
 19 22  1  0  0  0  0
 22 23  3  0  0  0  0
  4 24  1  0  0  0  0
 24 25  2  0  0  0  0
 24 26  1  0  0  0  0
 26 27  1  0  0  0  0
 27 28  1  0  0  0  0
 27 29  1  0  0  0  0
 27 30  1  0  0  0  0
M  END
> <ID>
1591292

$$$$
1591293
  -OEChem-05171416412D

 31 34  0     1  0  0  0  0  0999 V2000
    6.9366   -3.0042    0.0000 C   0  0  0  0  0  0  0  0  0  0  0  0
    6.9411   -2.0042    0.0000 C   0  0  0  0  0  0  0  0  0  0  0  0
    6.0773   -1.5004    0.0000 C   0  0  0  0  0  0  0  0  0  0  0  0
    5.2060   -2.0016    0.0000 C   0  0  0  0  0  0  0  0  0  0  0  0
    4.3422   -1.4978    0.0000 C   0  0  0  0  0  0  0  0  0  0  0  0
    4.3408   -0.4978    0.0000 C   0  0  0  0  0  0  0  0  0  0  0  0
    5.2121    0.0035    0.0000 C   0  0  0  0  0  0  0  0  0  0  0  0
    6.0848   -0.4953    0.0000 C   0  0  0  0  0  0  0  0  0  0  0  0
    3.4748    0.0023    0.0000 N   0  0  0  0  0  0  0  0  0  0  0  0
    3.4735    1.0079    0.0000 C   0  0  1  0  0  0  0  0  0  0  0  0
    4.4584    0.8349    0.0000 H   0  0  0  0  0  0  0  0  0  0  0  0
    2.6012    1.5123    0.0000 N   0  0  0  0  0  0  0  0  0  0  0  0
    1.7358    1.0056    0.0000 C   0  0  0  0  0  0  0  0  0  0  0  0
    0.8679    1.5135    0.0000 C   0  0  0  0  0  0  0  0  0  0  0  0
    0.0000    1.0056    0.0000 C   0  0  0  0  0  0  0  0  0  0  0  0
    0.0000    0.0000    0.0000 C   0  0  0  0  0  0  0  0  0  0  0  0
    0.8679   -0.4977    0.0000 C   0  0  0  0  0  0  0  0  0  0  0  0
    1.7371    0.0000    0.0000 C   0  0  0  0  0  0  0  0  0  0  0  0
    2.6038   -0.4989    0.0000 C   0  0  0  0  0  0  0  0  0  0  0  0
    2.6037   -1.4989    0.0000 O   0  0  0  0  0  0  0  0  0  0  0  0
    3.8155    1.9476    0.0000 C   0  0  0  0  0  0  0  0  0  0  0  0
    3.1671    2.7157    0.0000 C   0  0  0  0  0  0  0  0  0  0  0  0
    3.5091    3.6554    0.0000 C   0  0  0  0  0  0  0  0  0  0  0  0
    4.4930    3.8349    0.0000 C   0  0  0  0  0  0  0  0  0  0  0  0
    4.8308    4.7760    0.0000 O   0  0  0  0  0  0  0  0  0  0  0  0
    4.1847    5.5393    0.0000 C   0  0  0  0  0  0  0  0  0  0  0  0
    4.5226    6.4804    0.0000 C   0  0  0  0  0  0  0  0  0  0  0  0
    3.8765    7.2437    0.0000 C   0  0  0  0  0  0  0  0  0  0  0  0
    5.5066    6.6584    0.0000 C   0  0  0  0  0  0  0  0  0  0  0  0
    5.1413    3.0667    0.0000 C   0  0  0  0  0  0  0  0  0  0  0  0
    4.8059    2.1192    0.0000 C   0  0  0  0  0  0  0  0  0  0  0  0
  1  2  1  0  0  0  0
  2  3  1  0  0  0  0
  3  8  2  0  0  0  0
  3  4  1  0  0  0  0
  4  5  2  0  0  0  0
  5  6  1  0  0  0  0
  6  7  2  0  0  0  0
  7  8  1  0  0  0  0
  6  9  1  0  0  0  0
  9 19  1  0  0  0  0
  9 10  1  0  0  0  0
 10 11  1  6  0  0  0
 10 12  1  0  0  0  0
 12 13  1  0  0  0  0
 13 18  2  0  0  0  0
 13 14  1  0  0  0  0
 14 15  2  0  0  0  0
 15 16  1  0  0  0  0
 16 17  2  0  0  0  0
 17 18  1  0  0  0  0
 18 19  1  0  0  0  0
 19 20  2  0  0  0  0
 10 21  1  0  0  0  0
 21 31  2  0  0  0  0
 21 22  1  0  0  0  0
 22 23  2  0  0  0  0
 23 24  1  0  0  0  0
 24 25  1  0  0  0  0
 25 26  1  0  0  0  0
 26 27  1  0  0  0  0
 27 28  1  0  0  0  0
 27 29  1  0  0  0  0
 24 30  2  0  0  0  0
 30 31  1  0  0  0  0
M  END
> <ID>
1591293

$$$$
1591294
  -OEChem-05171416412D

 30 33  0     1  0  0  0  0  0999 V2000
    7.8004   -3.5081    0.0000 C   0  0  0  0  0  0  0  0  0  0  0  0
    6.9366   -3.0042    0.0000 C   0  0  0  0  0  0  0  0  0  0  0  0
    6.9411   -2.0042    0.0000 O   0  0  0  0  0  0  0  0  0  0  0  0
    6.0773   -1.5004    0.0000 C   0  0  0  0  0  0  0  0  0  0  0  0
    5.2060   -2.0016    0.0000 C   0  0  0  0  0  0  0  0  0  0  0  0
    4.3422   -1.4978    0.0000 C   0  0  0  0  0  0  0  0  0  0  0  0
    4.3408   -0.4978    0.0000 C   0  0  0  0  0  0  0  0  0  0  0  0
    5.2121    0.0035    0.0000 C   0  0  0  0  0  0  0  0  0  0  0  0
    6.0848   -0.4953    0.0000 C   0  0  0  0  0  0  0  0  0  0  0  0
    3.4748    0.0023    0.0000 N   0  0  0  0  0  0  0  0  0  0  0  0
    3.4735    1.0079    0.0000 C   0  0  1  0  0  0  0  0  0  0  0  0
    4.4584    0.8349    0.0000 H   0  0  0  0  0  0  0  0  0  0  0  0
    2.6012    1.5123    0.0000 N   0  0  0  0  0  0  0  0  0  0  0  0
    1.7358    1.0056    0.0000 C   0  0  0  0  0  0  0  0  0  0  0  0
    0.8679    1.5135    0.0000 C   0  0  0  0  0  0  0  0  0  0  0  0
    0.0000    1.0056    0.0000 C   0  0  0  0  0  0  0  0  0  0  0  0
    0.0000    0.0000    0.0000 C   0  0  0  0  0  0  0  0  0  0  0  0
    0.8679   -0.4977    0.0000 C   0  0  0  0  0  0  0  0  0  0  0  0
    1.7371    0.0000    0.0000 C   0  0  0  0  0  0  0  0  0  0  0  0
    2.6038   -0.4989    0.0000 C   0  0  0  0  0  0  0  0  0  0  0  0
    2.6037   -1.4989    0.0000 O   0  0  0  0  0  0  0  0  0  0  0  0
    3.8155    1.9476    0.0000 C   0  0  0  0  0  0  0  0  0  0  0  0
    3.1671    2.7157    0.0000 C   0  0  0  0  0  0  0  0  0  0  0  0
    3.5091    3.6554    0.0000 C   0  0  0  0  0  0  0  0  0  0  0  0
    4.4930    3.8349    0.0000 C   0  0  0  0  0  0  0  0  0  0  0  0
    5.1413    3.0667    0.0000 C   0  0  0  0  0  0  0  0  0  0  0  0
    4.8059    2.1192    0.0000 C   0  0  0  0  0  0  0  0  0  0  0  0
    4.8308    4.7760    0.0000 N   0  0  0  0  0  0  0  0  0  0  0  0
    4.1847    5.5393    0.0000 C   0  0  0  0  0  0  0  0  0  0  0  0
    5.8149    4.9540    0.0000 C   0  0  0  0  0  0  0  0  0  0  0  0
  1  2  1  0  0  0  0
  2  3  1  0  0  0  0
  3  4  1  0  0  0  0
  4  9  2  0  0  0  0
  4  5  1  0  0  0  0
  5  6  2  0  0  0  0
  6  7  1  0  0  0  0
  7  8  2  0  0  0  0
  8  9  1  0  0  0  0
  7 10  1  0  0  0  0
 10 20  1  0  0  0  0
 10 11  1  0  0  0  0
 11 12  1  6  0  0  0
 11 13  1  0  0  0  0
 13 14  1  0  0  0  0
 14 19  2  0  0  0  0
 14 15  1  0  0  0  0
 15 16  2  0  0  0  0
 16 17  1  0  0  0  0
 17 18  2  0  0  0  0
 18 19  1  0  0  0  0
 19 20  1  0  0  0  0
 20 21  2  0  0  0  0
 11 22  1  0  0  0  0
 22 27  2  0  0  0  0
 22 23  1  0  0  0  0
 23 24  2  0  0  0  0
 24 25  1  0  0  0  0
 25 26  2  0  0  0  0
 26 27  1  0  0  0  0
 25 28  1  0  0  0  0
 28 29  1  0  0  0  0
 28 30  1  0  0  0  0
M  END
> <ID>
1591294

$$$$
1591295
  -OEChem-05171416412D

 30 33  0     1  0  0  0  0  0999 V2000
    5.8330    4.9393    0.0000 C   0  0  0  0  0  0  0  0  0  0  0  0
    4.8474    4.7700    0.0000 O   0  0  0  0  0  0  0  0  0  0  0  0
    4.5013    3.8319    0.0000 C   0  0  0  0  0  0  0  0  0  0  0  0
    5.1463    3.0609    0.0000 C   0  0  0  0  0  0  0  0  0  0  0  0
    4.8001    2.1227    0.0000 C   0  0  0  0  0  0  0  0  0  0  0  0
    3.8155    1.9476    0.0000 C   0  0  0  0  0  0  0  0  0  0  0  0
    3.1705    2.7186    0.0000 C   0  0  0  0  0  0  0  0  0  0  0  0
    3.5101    3.6646    0.0000 C   0  0  0  0  0  0  0  0  0  0  0  0
    3.4735    1.0079    0.0000 C   0  0  2  0  0  0  0  0  0  0  0  0
    4.4584    0.8349    0.0000 H   0  0  0  0  0  0  0  0  0  0  0  0
    2.6012    1.5123    0.0000 N   0  0  0  0  0  0  0  0  0  0  0  0
    1.7358    1.0056    0.0000 C   0  0  0  0  0  0  0  0  0  0  0  0
    0.8679    1.5135    0.0000 C   0  0  0  0  0  0  0  0  0  0  0  0
    0.0000    1.0056    0.0000 C   0  0  0  0  0  0  0  0  0  0  0  0
    0.0000    0.0000    0.0000 C   0  0  0  0  0  0  0  0  0  0  0  0
    0.8679   -0.4977    0.0000 C   0  0  0  0  0  0  0  0  0  0  0  0
    1.7371    0.0000    0.0000 C   0  0  0  0  0  0  0  0  0  0  0  0
    2.6038   -0.4989    0.0000 C   0  0  0  0  0  0  0  0  0  0  0  0
    2.6037   -1.4989    0.0000 O   0  0  0  0  0  0  0  0  0  0  0  0
    3.4748    0.0023    0.0000 N   0  0  0  0  0  0  0  0  0  0  0  0
    4.3408   -0.4978    0.0000 C   0  0  0  0  0  0  0  0  0  0  0  0
    5.2099    0.0073    0.0000 C   0  0  0  0  0  0  0  0  0  0  0  0
    6.0759   -0.4927    0.0000 C   0  0  0  0  0  0  0  0  0  0  0  0
    6.0817   -1.4927    0.0000 C   0  0  0  0  0  0  0  0  0  0  0  0
    6.9499   -1.9890    0.0000 N   0  0  0  0  0  0  0  0  0  0  0  0
    7.8137   -1.4852    0.0000 C   0  0  0  0  0  0  0  0  0  0  0  0
    7.8094   -0.4852    0.0000 O   0  0  0  0  0  0  0  0  0  0  0  0
    8.6819   -1.9815    0.0000 C   0  0  0  0  0  0  0  0  0  0  0  0
    5.2126   -1.9978    0.0000 C   0  0  0  0  0  0  0  0  0  0  0  0
    4.3377   -1.5029    0.0000 C   0  0  0  0  0  0  0  0  0  0  0  0
  1  2  1  0  0  0  0
  2  3  1  0  0  0  0
  3  8  2  0  0  0  0
  3  4  1  0  0  0  0
  4  5  2  0  0  0  0
  5  6  1  0  0  0  0
  6  7  2  0  0  0  0
  7  8  1  0  0  0  0
  6  9  1  0  0  0  0
  9 10  1  6  0  0  0
  9 20  1  0  0  0  0
  9 11  1  0  0  0  0
 11 12  1  0  0  0  0
 12 17  2  0  0  0  0
 12 13  1  0  0  0  0
 13 14  2  0  0  0  0
 14 15  1  0  0  0  0
 15 16  2  0  0  0  0
 16 17  1  0  0  0  0
 17 18  1  0  0  0  0
 18 19  2  0  0  0  0
 18 20  1  0  0  0  0
 20 21  1  0  0  0  0
 21 30  2  0  0  0  0
 21 22  1  0  0  0  0
 22 23  2  0  0  0  0
 23 24  1  0  0  0  0
 24 25  1  0  0  0  0
 25 26  1  0  0  0  0
 26 27  2  0  0  0  0
 26 28  1  0  0  0  0
 24 29  2  0  0  0  0
 29 30  1  0  0  0  0
M  END
> <ID>
1591295

$$$$
1591296
  -OEChem-05171416412D

 33 37  0     1  0  0  0  0  0999 V2000
    5.8330    4.9393    0.0000 C   0  0  0  0  0  0  0  0  0  0  0  0
    4.8474    4.7700    0.0000 O   0  0  0  0  0  0  0  0  0  0  0  0
    4.5013    3.8319    0.0000 C   0  0  0  0  0  0  0  0  0  0  0  0
    5.1463    3.0609    0.0000 C   0  0  0  0  0  0  0  0  0  0  0  0
    4.8001    2.1227    0.0000 C   0  0  0  0  0  0  0  0  0  0  0  0
    3.8155    1.9476    0.0000 C   0  0  0  0  0  0  0  0  0  0  0  0
    3.1705    2.7186    0.0000 C   0  0  0  0  0  0  0  0  0  0  0  0
    3.5101    3.6646    0.0000 C   0  0  0  0  0  0  0  0  0  0  0  0
    3.4735    1.0079    0.0000 C   0  0  2  0  0  0  0  0  0  0  0  0
    4.4584    0.8349    0.0000 H   0  0  0  0  0  0  0  0  0  0  0  0
    2.6012    1.5123    0.0000 N   0  0  0  0  0  0  0  0  0  0  0  0
    1.7358    1.0056    0.0000 C   0  0  0  0  0  0  0  0  0  0  0  0
    0.8679    1.5135    0.0000 C   0  0  0  0  0  0  0  0  0  0  0  0
    0.0000    1.0056    0.0000 C   0  0  0  0  0  0  0  0  0  0  0  0
    0.0000    0.0000    0.0000 C   0  0  0  0  0  0  0  0  0  0  0  0
    0.8679   -0.4977    0.0000 C   0  0  0  0  0  0  0  0  0  0  0  0
    1.7371    0.0000    0.0000 C   0  0  0  0  0  0  0  0  0  0  0  0
    2.6038   -0.4989    0.0000 C   0  0  0  0  0  0  0  0  0  0  0  0
    2.6037   -1.4989    0.0000 O   0  0  0  0  0  0  0  0  0  0  0  0
    3.4748    0.0023    0.0000 N   0  0  0  0  0  0  0  0  0  0  0  0
    4.3408   -0.4978    0.0000 C   0  0  0  0  0  0  0  0  0  0  0  0
    5.2099    0.0073    0.0000 C   0  0  0  0  0  0  0  0  0  0  0  0
    6.0759   -0.4927    0.0000 C   0  0  0  0  0  0  0  0  0  0  0  0
    6.0817   -1.4927    0.0000 C   0  0  0  0  0  0  0  0  0  0  0  0
    6.9499   -1.9890    0.0000 O   0  0  0  0  0  0  0  0  0  0  0  0
    7.8137   -1.4852    0.0000 C   0  0  0  0  0  0  0  0  0  0  0  0
    7.8064   -0.4800    0.0000 C   0  0  0  0  0  0  0  0  0  0  0  0
    8.6703    0.0238    0.0000 C   0  0  0  0  0  0  0  0  0  0  0  0
    9.5414   -0.4674    0.0000 C   0  0  0  0  0  0  0  0  0  0  0  0
    9.5487   -1.4726    0.0000 C   0  0  0  0  0  0  0  0  0  0  0  0
    8.6849   -1.9866    0.0000 C   0  0  0  0  0  0  0  0  0  0  0  0
    5.2126   -1.9978    0.0000 C   0  0  0  0  0  0  0  0  0  0  0  0
    4.3377   -1.5029    0.0000 C   0  0  0  0  0  0  0  0  0  0  0  0
  1  2  1  0  0  0  0
  2  3  1  0  0  0  0
  3  8  2  0  0  0  0
  3  4  1  0  0  0  0
  4  5  2  0  0  0  0
  5  6  1  0  0  0  0
  6  7  2  0  0  0  0
  7  8  1  0  0  0  0
  6  9  1  0  0  0  0
  9 10  1  6  0  0  0
  9 20  1  0  0  0  0
  9 11  1  0  0  0  0
 11 12  1  0  0  0  0
 12 17  2  0  0  0  0
 12 13  1  0  0  0  0
 13 14  2  0  0  0  0
 14 15  1  0  0  0  0
 15 16  2  0  0  0  0
 16 17  1  0  0  0  0
 17 18  1  0  0  0  0
 18 19  2  0  0  0  0
 18 20  1  0  0  0  0
 20 21  1  0  0  0  0
 21 33  2  0  0  0  0
 21 22  1  0  0  0  0
 22 23  2  0  0  0  0
 23 24  1  0  0  0  0
 24 25  1  0  0  0  0
 25 26  1  0  0  0  0
 26 31  2  0  0  0  0
 26 27  1  0  0  0  0
 27 28  2  0  0  0  0
 28 29  1  0  0  0  0
 29 30  2  0  0  0  0
 30 31  1  0  0  0  0
 24 32  2  0  0  0  0
 32 33  1  0  0  0  0
M  END
> <ID>
1591296

$$$$
1591297
  -OEChem-05171416412D

 31 34  0     1  0  0  0  0  0999 V2000
    7.8004   -3.5081    0.0000 C   0  0  0  0  0  0  0  0  0  0  0  0
    7.8048   -2.5081    0.0000 C   0  0  0  0  0  0  0  0  0  0  0  0
    6.9411   -2.0042    0.0000 C   0  0  2  0  0  0  0  0  0  0  0  0
    6.4372   -2.8680    0.0000 H   0  0  0  0  0  0  0  0  0  0  0  0
    7.4449   -1.1405    0.0000 C   0  0  0  0  0  0  0  0  0  0  0  0
    6.0773   -1.5004    0.0000 C   0  0  0  0  0  0  0  0  0  0  0  0
    5.2060   -2.0016    0.0000 C   0  0  0  0  0  0  0  0  0  0  0  0
    4.3422   -1.4978    0.0000 C   0  0  0  0  0  0  0  0  0  0  0  0
    4.3408   -0.4978    0.0000 C   0  0  0  0  0  0  0  0  0  0  0  0
    5.2121    0.0035    0.0000 C   0  0  0  0  0  0  0  0  0  0  0  0
    6.0848   -0.4953    0.0000 C   0  0  0  0  0  0  0  0  0  0  0  0
    3.4748    0.0023    0.0000 N   0  0  0  0  0  0  0  0  0  0  0  0
    3.4735    1.0079    0.0000 C   0  0  1  0  0  0  0  0  0  0  0  0
    4.4584    0.8349    0.0000 H   0  0  0  0  0  0  0  0  0  0  0  0
    2.6012    1.5123    0.0000 N   0  0  0  0  0  0  0  0  0  0  0  0
    1.7358    1.0056    0.0000 C   0  0  0  0  0  0  0  0  0  0  0  0
    0.8679    1.5135    0.0000 C   0  0  0  0  0  0  0  0  0  0  0  0
    0.0000    1.0056    0.0000 C   0  0  0  0  0  0  0  0  0  0  0  0
    0.0000    0.0000    0.0000 C   0  0  0  0  0  0  0  0  0  0  0  0
    0.8679   -0.4977    0.0000 C   0  0  0  0  0  0  0  0  0  0  0  0
    1.7371    0.0000    0.0000 C   0  0  0  0  0  0  0  0  0  0  0  0
    2.6038   -0.4989    0.0000 C   0  0  0  0  0  0  0  0  0  0  0  0
    2.6037   -1.4989    0.0000 O   0  0  0  0  0  0  0  0  0  0  0  0
    3.8155    1.9476    0.0000 C   0  0  0  0  0  0  0  0  0  0  0  0
    3.1671    2.7157    0.0000 C   0  0  0  0  0  0  0  0  0  0  0  0
    3.5091    3.6554    0.0000 C   0  0  0  0  0  0  0  0  0  0  0  0
    4.4930    3.8349    0.0000 C   0  0  0  0  0  0  0  0  0  0  0  0
    4.8308    4.7760    0.0000 O   0  0  0  0  0  0  0  0  0  0  0  0
    4.1847    5.5393    0.0000 C   0  0  0  0  0  0  0  0  0  0  0  0
    5.1413    3.0667    0.0000 C   0  0  0  0  0  0  0  0  0  0  0  0
    4.8059    2.1192    0.0000 C   0  0  0  0  0  0  0  0  0  0  0  0
  1  2  1  0  0  0  0
  2  3  1  0  0  0  0
  3  4  1  6  0  0  0
  3  5  1  0  0  0  0
  3  6  1  0  0  0  0
  6 11  2  0  0  0  0
  6  7  1  0  0  0  0
  7  8  2  0  0  0  0
  8  9  1  0  0  0  0
  9 10  2  0  0  0  0
 10 11  1  0  0  0  0
  9 12  1  0  0  0  0
 12 22  1  0  0  0  0
 12 13  1  0  0  0  0
 13 14  1  6  0  0  0
 13 15  1  0  0  0  0
 15 16  1  0  0  0  0
 16 21  2  0  0  0  0
 16 17  1  0  0  0  0
 17 18  2  0  0  0  0
 18 19  1  0  0  0  0
 19 20  2  0  0  0  0
 20 21  1  0  0  0  0
 21 22  1  0  0  0  0
 22 23  2  0  0  0  0
 13 24  1  0  0  0  0
 24 31  2  0  0  0  0
 24 25  1  0  0  0  0
 25 26  2  0  0  0  0
 26 27  1  0  0  0  0
 27 28  1  0  0  0  0
 28 29  1  0  0  0  0
 27 30  2  0  0  0  0
 30 31  1  0  0  0  0
M  END
> <ID>
1591297

$$$$
1591298
  -OEChem-05171416412D

 32 35  0     1  0  0  0  0  0999 V2000
    8.6731   -2.0120    0.0000 C   0  0  0  0  0  0  0  0  0  0  0  0
    7.8048   -2.5081    0.0000 C   0  0  0  0  0  0  0  0  0  0  0  0
    6.9411   -2.0042    0.0000 C   0  0  2  0  0  0  0  0  0  0  0  0
    7.4449   -1.1405    0.0000 H   0  0  0  0  0  0  0  0  0  0  0  0
    6.4372   -2.8680    0.0000 C   0  0  0  0  0  0  0  0  0  0  0  0
    6.0773   -1.5004    0.0000 C   0  0  0  0  0  0  0  0  0  0  0  0
    5.2060   -2.0016    0.0000 C   0  0  0  0  0  0  0  0  0  0  0  0
    4.3422   -1.4978    0.0000 C   0  0  0  0  0  0  0  0  0  0  0  0
    4.3408   -0.4978    0.0000 C   0  0  0  0  0  0  0  0  0  0  0  0
    5.2121    0.0035    0.0000 C   0  0  0  0  0  0  0  0  0  0  0  0
    6.0848   -0.4953    0.0000 C   0  0  0  0  0  0  0  0  0  0  0  0
    3.4748    0.0023    0.0000 N   0  0  0  0  0  0  0  0  0  0  0  0
    3.4735    1.0079    0.0000 C   0  0  1  0  0  0  0  0  0  0  0  0
    4.4584    0.8349    0.0000 H   0  0  0  0  0  0  0  0  0  0  0  0
    2.6012    1.5123    0.0000 N   0  0  0  0  0  0  0  0  0  0  0  0
    1.7358    1.0056    0.0000 C   0  0  0  0  0  0  0  0  0  0  0  0
    0.8679    1.5135    0.0000 C   0  0  0  0  0  0  0  0  0  0  0  0
    0.0000    1.0056    0.0000 C   0  0  0  0  0  0  0  0  0  0  0  0
    0.0000    0.0000    0.0000 C   0  0  0  0  0  0  0  0  0  0  0  0
    0.8679   -0.4977    0.0000 C   0  0  0  0  0  0  0  0  0  0  0  0
    1.7371    0.0000    0.0000 C   0  0  0  0  0  0  0  0  0  0  0  0
    2.6038   -0.4989    0.0000 C   0  0  0  0  0  0  0  0  0  0  0  0
    2.6037   -1.4989    0.0000 O   0  0  0  0  0  0  0  0  0  0  0  0
    3.8155    1.9476    0.0000 C   0  0  0  0  0  0  0  0  0  0  0  0
    3.1671    2.7157    0.0000 C   0  0  0  0  0  0  0  0  0  0  0  0
    3.5091    3.6554    0.0000 C   0  0  0  0  0  0  0  0  0  0  0  0
    4.4930    3.8349    0.0000 C   0  0  0  0  0  0  0  0  0  0  0  0
    5.1413    3.0667    0.0000 C   0  0  0  0  0  0  0  0  0  0  0  0
    4.8059    2.1192    0.0000 C   0  0  0  0  0  0  0  0  0  0  0  0
    4.8308    4.7760    0.0000 C   0  0  0  0  0  0  0  0  0  0  0  0
    4.1847    5.5393    0.0000 C   0  0  0  0  0  0  0  0  0  0  0  0
    5.8149    4.9540    0.0000 C   0  0  0  0  0  0  0  0  0  0  0  0
  1  2  1  0  0  0  0
  2  3  1  0  0  0  0
  3  4  1  1  0  0  0
  3  5  1  0  0  0  0
  3  6  1  0  0  0  0
  6 11  2  0  0  0  0
  6  7  1  0  0  0  0
  7  8  2  0  0  0  0
  8  9  1  0  0  0  0
  9 10  2  0  0  0  0
 10 11  1  0  0  0  0
  9 12  1  0  0  0  0
 12 22  1  0  0  0  0
 12 13  1  0  0  0  0
 13 14  1  6  0  0  0
 13 15  1  0  0  0  0
 15 16  1  0  0  0  0
 16 21  2  0  0  0  0
 16 17  1  0  0  0  0
 17 18  2  0  0  0  0
 18 19  1  0  0  0  0
 19 20  2  0  0  0  0
 20 21  1  0  0  0  0
 21 22  1  0  0  0  0
 22 23  2  0  0  0  0
 13 24  1  0  0  0  0
 24 29  2  0  0  0  0
 24 25  1  0  0  0  0
 25 26  2  0  0  0  0
 26 27  1  0  0  0  0
 27 28  2  0  0  0  0
 28 29  1  0  0  0  0
 27 30  1  0  0  0  0
 30 31  1  0  0  0  0
 30 32  1  0  0  0  0
M  END
> <ID>
1591298

$$$$
371317
  -OEChem-05171416412D

 27 30  0     0  0  0  0  0  0999 V2000
    0.0000    0.0000    0.0000 C   0  0  0  0  0  0  0  0  0  0  0  0
    1.0000    0.0000    0.0000 C   0  0  0  0  0  0  0  0  0  0  0  0
    1.5000    0.8660    0.0000 C   0  0  0  0  0  0  0  0  0  0  0  0
    2.5000    0.8660    0.0000 C   0  0  0  0  0  0  0  0  0  0  0  0
    3.0000    1.7321    0.0000 S   0  0  0  0  0  0  0  0  0  0  0  0
    4.0000    1.7321    0.0000 C   0  0  0  0  0  0  0  0  0  0  0  0
    4.5000    2.5981    0.0000 N   0  0  0  0  0  0  0  0  0  0  0  0
    5.5000    2.5981    0.0000 C   0  0  0  0  0  0  0  0  0  0  0  0
    6.0000    1.7321    0.0000 C   0  0  0  0  0  0  0  0  0  0  0  0
    5.5000    0.8660    0.0000 C   0  0  0  0  0  0  0  0  0  0  0  0
    6.0000   -0.0000    0.0000 O   0  0  0  0  0  0  0  0  0  0  0  0
    4.5000    0.8660    0.0000 N   0  0  0  0  0  0  0  0  0  0  0  0
    4.0000   -0.0000    0.0000 C   0  0  0  0  0  0  0  0  0  0  0  0
    4.5000   -0.8660    0.0000 C   0  0  0  0  0  0  0  0  0  0  0  0
    4.0000   -1.7321    0.0000 C   0  0  0  0  0  0  0  0  0  0  0  0
    7.0000    1.7321    0.0000 C   0  0  0  0  0  0  0  0  0  0  0  0
    6.5933    0.8185    0.0000 C   0  0  0  0  0  0  0  0  0  0  0  0
    7.3364    0.1494    0.0000 C   0  0  0  0  0  0  0  0  0  0  0  0
    8.2024    0.6494    0.0000 C   0  0  0  0  0  0  0  0  0  0  0  0
    7.9945    1.6275    0.0000 C   0  0  0  0  0  0  0  0  0  0  0  0
    7.5000    2.5981    0.0000 C   0  0  0  0  0  0  0  0  0  0  0  0
    7.0000    3.4641    0.0000 C   0  0  0  0  0  0  0  0  0  0  0  0
    7.5000    4.3301    0.0000 C   0  0  0  0  0  0  0  0  0  0  0  0
    7.0000    5.1962    0.0000 C   0  0  0  0  0  0  0  0  0  0  0  0
    6.0000    5.1962    0.0000 C   0  0  0  0  0  0  0  0  0  0  0  0
    5.5000    4.3301    0.0000 C   0  0  0  0  0  0  0  0  0  0  0  0
    6.0000    3.4641    0.0000 C   0  0  0  0  0  0  0  0  0  0  0  0
  1  2  1  0  0  0  0
  2  3  1  0  0  0  0
  3  4  1  0  0  0  0
  4  5  1  0  0  0  0
  5  6  1  0  0  0  0
  6 12  1  0  0  0  0
  6  7  2  0  0  0  0
  7  8  1  0  0  0  0
  8 27  1  0  0  0  0
  8  9  2  0  0  0  0
  9 10  1  0  0  0  0
 10 11  2  0  0  0  0
 10 12  1  0  0  0  0
 12 13  1  0  0  0  0
 13 14  1  0  0  0  0
 14 15  2  0  0  0  0
  9 16  1  0  0  0  0
 16 20  1  0  0  0  0
 16 17  1  0  0  0  0
 17 18  1  0  0  0  0
 18 19  1  0  0  0  0
 19 20  1  0  0  0  0
 16 21  1  0  0  0  0
 21 22  1  0  0  0  0
 22 27  2  0  0  0  0
 22 23  1  0  0  0  0
 23 24  2  0  0  0  0
 24 25  1  0  0  0  0
 25 26  2  0  0  0  0
 26 27  1  0  0  0  0
M  END
> <ID>
371317

$$$$
1591299
  -OEChem-05171416412D

 22 25  0     0  0  0  0  0  0999 V2000
    3.4692    3.0118    0.0000 Cl  0  0  0  0  0  0  0  0  0  0  0  0
    4.3361    2.5134    0.0000 C   0  0  0  0  0  0  0  0  0  0  0  0
    5.2020    3.0137    0.0000 C   0  0  0  0  0  0  0  0  0  0  0  0
    6.0711    2.5190    0.0000 C   0  0  0  0  0  0  0  0  0  0  0  0
    6.0744    1.5138    0.0000 C   0  0  0  0  0  0  0  0  0  0  0  0
    5.2085    1.0033    0.0000 C   0  0  0  0  0  0  0  0  0  0  0  0
    4.3394    1.5082    0.0000 C   0  0  0  0  0  0  0  0  0  0  0  0
    3.4735    1.0079    0.0000 C   0  0  0  0  0  0  0  0  0  0  0  0
    3.4748    0.0023    0.0000 N   0  0  0  0  0  0  0  0  0  0  0  0
    2.6038   -0.4989    0.0000 C   0  0  0  0  0  0  0  0  0  0  0  0
    2.6037   -1.4989    0.0000 N   0  0  0  0  0  0  0  0  0  0  0  0
    1.7955   -2.0885    0.0000 C   0  0  0  0  0  0  0  0  0  0  0  0
    2.1005   -3.0409    0.0000 C   0  0  0  0  0  0  0  0  0  0  0  0
    3.1020   -3.0425    0.0000 C   0  0  0  0  0  0  0  0  0  0  0  0
    3.4153   -2.0911    0.0000 C   0  0  0  0  0  0  0  0  0  0  0  0
    1.7371    0.0000    0.0000 C   0  0  0  0  0  0  0  0  0  0  0  0
    0.8679   -0.4977    0.0000 C   0  0  0  0  0  0  0  0  0  0  0  0
    0.0000    0.0000    0.0000 C   0  0  0  0  0  0  0  0  0  0  0  0
   -0.0000    1.0056    0.0000 C   0  0  0  0  0  0  0  0  0  0  0  0
    0.8679    1.5135    0.0000 C   0  0  0  0  0  0  0  0  0  0  0  0
    1.7358    1.0056    0.0000 C   0  0  0  0  0  0  0  0  0  0  0  0
    2.6012    1.5123    0.0000 N   0  0  0  0  0  0  0  0  0  0  0  0
  1  2  1  0  0  0  0
  2  7  2  0  0  0  0
  2  3  1  0  0  0  0
  3  4  2  0  0  0  0
  4  5  1  0  0  0  0
  5  6  2  0  0  0  0
  6  7  1  0  0  0  0
  7  8  1  0  0  0  0
  8 22  2  0  0  0  0
  8  9  1  0  0  0  0
  9 10  2  0  0  0  0
 10 11  1  0  0  0  0
 11 15  1  0  0  0  0
 11 12  1  0  0  0  0
 12 13  1  0  0  0  0
 13 14  1  0  0  0  0
 14 15  1  0  0  0  0
 10 16  1  0  0  0  0
 16 21  2  0  0  0  0
 16 17  1  0  0  0  0
 17 18  2  0  0  0  0
 18 19  1  0  0  0  0
 19 20  2  0  0  0  0
 20 21  1  0  0  0  0
 21 22  1  0  0  0  0
M  END
> <ID>
1591299

$$$$
1591300
  -OEChem-05171416412D

 29 32  0     1  0  0  0  0  0999 V2000
   -3.1776    3.9762    0.0000 C   0  0  0  0  0  0  0  0  0  0  0  0
   -2.1923    4.1474    0.0000 N   0  0  0  0  0  0  0  0  0  0  0  0
   -1.8480    5.0862    0.0000 C   0  0  0  0  0  0  0  0  0  0  0  0
   -1.5514    3.3798    0.0000 C   0  0  0  0  0  0  0  0  0  0  0  0
   -0.5616    3.5548    0.0000 C   0  0  0  0  0  0  0  0  0  0  0  0
    0.0794    2.7872    0.0000 C   0  0  0  0  0  0  0  0  0  0  0  0
   -0.2595    1.8463    0.0000 C   0  0  0  0  0  0  0  0  0  0  0  0
   -1.2493    1.6713    0.0000 C   0  0  0  0  0  0  0  0  0  0  0  0
   -1.9003    2.4371    0.0000 C   0  0  0  0  0  0  0  0  0  0  0  0
    0.8680    0.5079    0.0000 C   0  0  1  0  0  0  0  0  0  0  0  0
    1.5123    1.2727    0.0000 H   0  0  0  0  0  0  0  0  0  0  0  0
    0.0000    0.0000    0.0000 C   0  0  0  0  0  0  0  0  0  0  0  0
   -0.0000   -1.0058    0.0000 C   0  0  0  0  0  0  0  0  0  0  0  0
   -0.8653   -1.5070    0.0000 N   0  0  0  0  0  0  0  0  0  0  0  0
    0.8680   -1.5037    0.0000 O   0  0  0  0  0  0  0  0  0  0  0  0
    1.7360   -1.0071    0.0000 C   0  0  0  0  0  0  0  0  0  0  0  0
    2.6938   -1.3184    0.0000 N   0  0  0  0  0  0  0  0  0  0  0  0
    3.2858   -0.5036    0.0000 N   0  0  0  0  0  0  0  0  0  0  0  0
    2.6938    0.3110    0.0000 C   0  0  0  0  0  0  0  0  0  0  0  0
    3.0028    1.2620    0.0000 C   0  0  0  0  0  0  0  0  0  0  0  0
    2.3281    2.0071    0.0000 C   0  0  0  0  0  0  0  0  0  0  0  0
    2.6371    2.9582    0.0000 C   0  0  0  0  0  0  0  0  0  0  0  0
    3.6140    3.1718    0.0000 C   0  0  0  0  0  0  0  0  0  0  0  0
    3.9189    4.1242    0.0000 C   0  0  0  0  0  0  0  0  0  0  0  0
    4.2888    2.4267    0.0000 C   0  0  0  0  0  0  0  0  0  0  0  0
    3.9866    1.4681    0.0000 C   0  0  0  0  0  0  0  0  0  0  0  0
    1.7360   -0.0000    0.0000 C   0  0  0  0  0  0  0  0  0  0  0  0
   -0.8675    0.4975    0.0000 C   0  0  0  0  0  0  0  0  0  0  0  0
   -1.7350    0.9950    0.0000 N   0  0  0  0  0  0  0  0  0  0  0  0
  1  2  1  0  0  0  0
  2  3  1  0  0  0  0
  2  4  1  0  0  0  0
  4  9  2  0  0  0  0
  4  5  1  0  0  0  0
  5  6  2  0  0  0  0
  6  7  1  0  0  0  0
  7  8  2  0  0  0  0
  8  9  1  0  0  0  0
  7 10  1  0  0  0  0
 10 11  1  1  0  0  0
 10 27  1  0  0  0  0
 10 12  1  0  0  0  0
 12 13  2  0  0  0  0
 13 14  1  0  0  0  0
 13 15  1  0  0  0  0
 15 16  1  0  0  0  0
 16 27  2  0  0  0  0
 16 17  1  0  0  0  0
 17 18  1  0  0  0  0
 18 19  2  0  0  0  0
 19 20  1  0  0  0  0
 20 26  2  0  0  0  0
 20 21  1  0  0  0  0
 21 22  2  0  0  0  0
 22 23  1  0  0  0  0
 23 24  1  0  0  0  0
 23 25  2  0  0  0  0
 25 26  1  0  0  0  0
 19 27  1  0  0  0  0
 12 28  1  0  0  0  0
 28 29  3  0  0  0  0
M  END
> <ID>
1591300

$$$$
371381
  -OEChem-05171416412D

 22 23  0     0  0  0  0  0  0999 V2000
    4.0312    5.1557    0.0000 F   0  0  0  0  0  0  0  0  0  0  0  0
    4.0400    6.1556    0.0000 C   0  0  0  0  0  0  0  0  0  0  0  0
    4.9163    6.6480    0.0000 C   0  0  0  0  0  0  0  0  0  0  0  0
    4.9251    7.6480    0.0000 C   0  0  0  0  0  0  0  0  0  0  0  0
    4.0665    8.1606    0.0000 C   0  0  0  0  0  0  0  0  0  0  0  0
    3.1901    7.6682    0.0000 C   0  0  0  0  0  0  0  0  0  0  0  0
    2.3315    8.1809    0.0000 Cl  0  0  0  0  0  0  0  0  0  0  0  0
    3.1724    6.6633    0.0000 C   0  0  0  0  0  0  0  0  0  0  0  0
    2.3006    6.1734    0.0000 C   0  0  0  0  0  0  0  0  0  0  0  0
    2.2889    5.1735    0.0000 N   0  0  0  0  0  0  0  0  0  0  0  0
    1.4170    4.6837    0.0000 N   0  0  0  0  0  0  0  0  0  0  0  0
    1.4053    3.6838    0.0000 C   0  0  0  0  0  0  0  0  0  0  0  0
    2.2654    3.1736    0.0000 O   0  0  0  0  0  0  0  0  0  0  0  0
    0.5335    3.1939    0.0000 C   0  0  0  0  0  0  0  0  0  0  0  0
   -0.3266    3.7040    0.0000 O   0  0  0  0  0  0  0  0  0  0  0  0
    0.5218    2.1940    0.0000 N   0  0  0  0  0  0  0  0  0  0  0  0
   -0.3849    1.7722    0.0000 C   0  0  0  0  0  0  0  0  0  0  0  0
   -0.6197    0.7929    0.0000 C   0  0  0  0  0  0  0  0  0  0  0  0
    0.0000    0.0000    0.0000 C   0  0  0  0  0  0  0  0  0  0  0  0
    1.0058   -0.0072    0.0000 C   0  0  0  0  0  0  0  0  0  0  0  0
    1.6419    0.7688    0.0000 C   0  0  0  0  0  0  0  0  0  0  0  0
    1.4246    1.7480    0.0000 C   0  0  0  0  0  0  0  0  0  0  0  0
  1  2  1  0  0  0  0
  2  8  2  0  0  0  0
  2  3  1  0  0  0  0
  3  4  2  0  0  0  0
  4  5  1  0  0  0  0
  5  6  2  0  0  0  0
  6  7  1  0  0  0  0
  6  8  1  0  0  0  0
  8  9  1  0  0  0  0
  9 10  2  0  0  0  0
 10 11  1  0  0  0  0
 11 12  1  0  0  0  0
 12 13  2  0  0  0  0
 12 14  1  0  0  0  0
 14 15  2  0  0  0  0
 14 16  1  0  0  0  0
 16 22  1  0  0  0  0
 16 17  1  0  0  0  0
 17 18  1  0  0  0  0
 18 19  1  0  0  0  0
 19 20  1  0  0  0  0
 20 21  1  0  0  0  0
 21 22  1  0  0  0  0
M  END
> <ID>
371381

$$$$
371500
  -OEChem-05171416412D

 34 37  0     0  0  0  0  0  0999 V2000
    7.3012   -1.2265    0.0000 C   0  0  0  0  0  0  0  0  0  0  0  0
    7.7961   -0.3575    0.0000 C   0  0  0  0  0  0  0  0  0  0  0  0
    8.7960   -0.3516    0.0000 O   0  0  0  0  0  0  0  0  0  0  0  0
    7.2909    0.5055    0.0000 C   0  0  0  0  0  0  0  0  0  0  0  0
    7.7909    1.3775    0.0000 C   0  0  0  0  0  0  0  0  0  0  0  0
    8.7909    1.3820    0.0000 C   0  0  0  0  0  0  0  0  0  0  0  0
    7.2858    2.2406    0.0000 C   0  0  0  0  0  0  0  0  0  0  0  0
    6.2857    2.2405    0.0000 C   0  0  0  0  0  0  0  0  0  0  0  0
    5.7844    3.1058    0.0000 C   0  0  0  0  0  0  0  0  0  0  0  0
    5.7857    1.3685    0.0000 C   0  0  0  0  0  0  0  0  0  0  0  0
    4.7857    1.3684    0.0000 C   0  0  0  0  0  0  0  0  0  0  0  0
    4.2858    0.5024    0.0000 S   0  0  0  0  0  0  0  0  0  0  0  0
    3.2858    0.5023    0.0000 C   0  0  0  0  0  0  0  0  0  0  0  0
    2.6938   -0.3125    0.0000 N   0  0  0  0  0  0  0  0  0  0  0  0
    1.7360   -0.0012    0.0000 C   0  0  0  0  0  0  0  0  0  0  0  0
    0.8680   -0.4978    0.0000 C   0  0  0  0  0  0  0  0  0  0  0  0
    0.0000    0.0000    0.0000 C   0  0  0  0  0  0  0  0  0  0  0  0
    0.0000    1.0058    0.0000 C   0  0  0  0  0  0  0  0  0  0  0  0
   -0.8675    1.5032    0.0000 N   0  0  0  0  0  0  0  0  0  0  0  0
   -1.7320    1.0007    0.0000 C   0  0  0  0  0  0  0  0  0  0  0  0
   -1.7291    0.0007    0.0000 O   0  0  0  0  0  0  0  0  0  0  0  0
   -2.5995    1.4981    0.0000 C   0  0  0  0  0  0  0  0  0  0  0  0
   -3.4641    0.9956    0.0000 C   0  0  0  0  0  0  0  0  0  0  0  0
   -4.3316    1.4930    0.0000 C   0  0  0  0  0  0  0  0  0  0  0  0
   -5.1991    0.9853    0.0000 C   0  0  0  0  0  0  0  0  0  0  0  0
   -6.0667    1.4827    0.0000 C   0  0  0  0  0  0  0  0  0  0  0  0
   -6.0755    2.4827    0.0000 C   0  0  0  0  0  0  0  0  0  0  0  0
   -5.2079    2.9904    0.0000 C   0  0  0  0  0  0  0  0  0  0  0  0
   -4.3316    2.4982    0.0000 C   0  0  0  0  0  0  0  0  0  0  0  0
    0.8680    1.5138    0.0000 C   0  0  0  0  0  0  0  0  0  0  0  0
    1.7360    1.0058    0.0000 C   0  0  0  0  0  0  0  0  0  0  0  0
    2.6938    1.3169    0.0000 S   0  0  0  0  0  0  0  0  0  0  0  0
    6.2858    0.4965    0.0000 C   0  0  0  0  0  0  0  0  0  0  0  0
    5.7884   -0.3710    0.0000 C   0  0  0  0  0  0  0  0  0  0  0  0
  1  2  1  0  0  0  0
  2  3  2  0  0  0  0
  2  4  1  0  0  0  0
  4 33  2  0  0  0  0
  4  5  1  0  0  0  0
  5  6  1  0  0  0  0
  5  7  2  0  0  0  0
  7  8  1  0  0  0  0
  8  9  1  0  0  0  0
  8 10  2  0  0  0  0
 10 11  1  0  0  0  0
 11 12  1  0  0  0  0
 12 13  1  0  0  0  0
 13 32  1  0  0  0  0
 13 14  2  0  0  0  0
 14 15  1  0  0  0  0
 15 31  2  0  0  0  0
 15 16  1  0  0  0  0
 16 17  2  0  0  0  0
 17 18  1  0  0  0  0
 18 19  1  0  0  0  0
 19 20  1  0  0  0  0
 20 21  2  0  0  0  0
 20 22  1  0  0  0  0
 22 23  1  0  0  0  0
 23 24  1  0  0  0  0
 24 29  2  0  0  0  0
 24 25  1  0  0  0  0
 25 26  2  0  0  0  0
 26 27  1  0  0  0  0
 27 28  2  0  0  0  0
 28 29  1  0  0  0  0
 18 30  2  0  0  0  0
 30 31  1  0  0  0  0
 31 32  1  0  0  0  0
 10 33  1  0  0  0  0
 33 34  1  0  0  0  0
M  END
> <ID>
371500

$$$$
371332
  -OEChem-05171416412D

 36 39  0     0  0  0  0  0  0999 V2000
    7.3012   -1.2265    0.0000 C   0  0  0  0  0  0  0  0  0  0  0  0
    7.7961   -0.3575    0.0000 C   0  0  0  0  0  0  0  0  0  0  0  0
    8.7960   -0.3516    0.0000 O   0  0  0  0  0  0  0  0  0  0  0  0
    7.2909    0.5055    0.0000 C   0  0  0  0  0  0  0  0  0  0  0  0
    7.7909    1.3775    0.0000 C   0  0  0  0  0  0  0  0  0  0  0  0
    8.7909    1.3820    0.0000 C   0  0  0  0  0  0  0  0  0  0  0  0
    7.2858    2.2406    0.0000 C   0  0  0  0  0  0  0  0  0  0  0  0
    6.2857    2.2405    0.0000 C   0  0  0  0  0  0  0  0  0  0  0  0
    5.7844    3.1058    0.0000 C   0  0  0  0  0  0  0  0  0  0  0  0
    5.7857    1.3685    0.0000 C   0  0  0  0  0  0  0  0  0  0  0  0
    4.7857    1.3684    0.0000 C   0  0  0  0  0  0  0  0  0  0  0  0
    4.2858    0.5024    0.0000 S   0  0  0  0  0  0  0  0  0  0  0  0
    3.2858    0.5023    0.0000 C   0  0  0  0  0  0  0  0  0  0  0  0
    2.6938   -0.3125    0.0000 N   0  0  0  0  0  0  0  0  0  0  0  0
    1.7360   -0.0012    0.0000 C   0  0  0  0  0  0  0  0  0  0  0  0
    0.8680   -0.4978    0.0000 C   0  0  0  0  0  0  0  0  0  0  0  0
    0.0000    0.0000    0.0000 C   0  0  0  0  0  0  0  0  0  0  0  0
    0.0000    1.0058    0.0000 C   0  0  0  0  0  0  0  0  0  0  0  0
   -0.8675    1.5032    0.0000 N   0  0  0  0  0  0  0  0  0  0  0  0
   -1.7320    1.0007    0.0000 C   0  0  0  0  0  0  0  0  0  0  0  0
   -1.7291    0.0007    0.0000 O   0  0  0  0  0  0  0  0  0  0  0  0
   -2.5995    1.4981    0.0000 C   0  0  0  0  0  0  0  0  0  0  0  0
   -3.4671    0.9904    0.0000 C   0  0  0  0  0  0  0  0  0  0  0  0
   -4.3346    1.4878    0.0000 C   0  0  0  0  0  0  0  0  0  0  0  0
   -4.3434    2.4878    0.0000 C   0  0  0  0  0  0  0  0  0  0  0  0
   -3.4759    2.9955    0.0000 C   0  0  0  0  0  0  0  0  0  0  0  0
   -2.5995    2.5033    0.0000 C   0  0  0  0  0  0  0  0  0  0  0  0
   -5.2131    2.9814    0.0000 C   0  0  0  0  0  0  0  0  0  0  0  0
   -5.7067    2.1117    0.0000 C   0  0  0  0  0  0  0  0  0  0  0  0
   -4.7195    3.8511    0.0000 C   0  0  0  0  0  0  0  0  0  0  0  0
   -6.0828    3.4750    0.0000 C   0  0  0  0  0  0  0  0  0  0  0  0
    0.8680    1.5138    0.0000 C   0  0  0  0  0  0  0  0  0  0  0  0
    1.7360    1.0058    0.0000 C   0  0  0  0  0  0  0  0  0  0  0  0
    2.6938    1.3169    0.0000 S   0  0  0  0  0  0  0  0  0  0  0  0
    6.2858    0.4965    0.0000 C   0  0  0  0  0  0  0  0  0  0  0  0
    5.7884   -0.3710    0.0000 C   0  0  0  0  0  0  0  0  0  0  0  0
  1  2  1  0  0  0  0
  2  3  2  0  0  0  0
  2  4  1  0  0  0  0
  4 35  2  0  0  0  0
  4  5  1  0  0  0  0
  5  6  1  0  0  0  0
  5  7  2  0  0  0  0
  7  8  1  0  0  0  0
  8  9  1  0  0  0  0
  8 10  2  0  0  0  0
 10 11  1  0  0  0  0
 11 12  1  0  0  0  0
 12 13  1  0  0  0  0
 13 34  1  0  0  0  0
 13 14  2  0  0  0  0
 14 15  1  0  0  0  0
 15 33  2  0  0  0  0
 15 16  1  0  0  0  0
 16 17  2  0  0  0  0
 17 18  1  0  0  0  0
 18 19  1  0  0  0  0
 19 20  1  0  0  0  0
 20 21  2  0  0  0  0
 20 22  1  0  0  0  0
 22 27  2  0  0  0  0
 22 23  1  0  0  0  0
 23 24  2  0  0  0  0
 24 25  1  0  0  0  0
 25 26  2  0  0  0  0
 26 27  1  0  0  0  0
 25 28  1  0  0  0  0
 28 29  1  0  0  0  0
 28 30  1  0  0  0  0
 28 31  1  0  0  0  0
 18 32  2  0  0  0  0
 32 33  1  0  0  0  0
 33 34  1  0  0  0  0
 10 35  1  0  0  0  0
 35 36  1  0  0  0  0
M  END
> <ID>
371332

$$$$
371289
  -OEChem-05171416412D

 37 40  0     0  0  0  0  0  0999 V2000
   -8.6685    3.0017    0.0000 C   0  0  0  0  0  0  0  0  0  0  0  0
   -7.8032    2.5005    0.0000 C   0  0  0  0  0  0  0  0  0  0  0  0
   -6.9364    2.9992    0.0000 C   0  0  0  0  0  0  0  0  0  0  0  0
   -6.0711    2.4980    0.0000 C   0  0  0  0  0  0  0  0  0  0  0  0
   -5.2044    2.9967    0.0000 O   0  0  0  0  0  0  0  0  0  0  0  0
   -4.3391    2.4955    0.0000 C   0  0  0  0  0  0  0  0  0  0  0  0
   -3.4693    2.9994    0.0000 C   0  0  0  0  0  0  0  0  0  0  0  0
   -2.6039    2.4981    0.0000 C   0  0  0  0  0  0  0  0  0  0  0  0
   -2.5995    1.4981    0.0000 C   0  0  0  0  0  0  0  0  0  0  0  0
   -3.4693    0.9942    0.0000 C   0  0  0  0  0  0  0  0  0  0  0  0
   -4.3435    1.4903    0.0000 C   0  0  0  0  0  0  0  0  0  0  0  0
   -1.7320    1.0007    0.0000 C   0  0  0  0  0  0  0  0  0  0  0  0
   -1.7291    0.0007    0.0000 O   0  0  0  0  0  0  0  0  0  0  0  0
   -0.8675    1.5032    0.0000 N   0  0  0  0  0  0  0  0  0  0  0  0
    0.0000    1.0058    0.0000 C   0  0  0  0  0  0  0  0  0  0  0  0
    0.0000    0.0000    0.0000 C   0  0  0  0  0  0  0  0  0  0  0  0
    0.8680   -0.4978    0.0000 C   0  0  0  0  0  0  0  0  0  0  0  0
    1.7360   -0.0012    0.0000 C   0  0  0  0  0  0  0  0  0  0  0  0
    2.6938   -0.3125    0.0000 N   0  0  0  0  0  0  0  0  0  0  0  0
    3.2858    0.5023    0.0000 C   0  0  0  0  0  0  0  0  0  0  0  0
    4.2858    0.5024    0.0000 S   0  0  0  0  0  0  0  0  0  0  0  0
    4.7857    1.3684    0.0000 C   0  0  0  0  0  0  0  0  0  0  0  0
    5.7857    1.3685    0.0000 C   0  0  0  0  0  0  0  0  0  0  0  0
    6.2858    0.4965    0.0000 C   0  0  0  0  0  0  0  0  0  0  0  0
    5.7846   -0.3688    0.0000 C   0  0  0  0  0  0  0  0  0  0  0  0
    7.2859    0.4965    0.0000 C   0  0  0  0  0  0  0  0  0  0  0  0
    7.7909    1.3596    0.0000 C   0  0  0  0  0  0  0  0  0  0  0  0
    8.7909    1.3553    0.0000 C   0  0  0  0  0  0  0  0  0  0  0  0
    7.2908    2.2316    0.0000 C   0  0  0  0  0  0  0  0  0  0  0  0
    7.7959    3.0947    0.0000 C   0  0  0  0  0  0  0  0  0  0  0  0
    8.7958    3.0889    0.0000 O   0  0  0  0  0  0  0  0  0  0  0  0
    7.3009    3.9636    0.0000 C   0  0  0  0  0  0  0  0  0  0  0  0
    6.2857    2.2405    0.0000 C   0  0  0  0  0  0  0  0  0  0  0  0
    5.7882    3.1079    0.0000 C   0  0  0  0  0  0  0  0  0  0  0  0
    2.6938    1.3169    0.0000 S   0  0  0  0  0  0  0  0  0  0  0  0
    1.7360    1.0058    0.0000 C   0  0  0  0  0  0  0  0  0  0  0  0
    0.8680    1.5138    0.0000 C   0  0  0  0  0  0  0  0  0  0  0  0
  1  2  1  0  0  0  0
  2  3  1  0  0  0  0
  3  4  1  0  0  0  0
  4  5  1  0  0  0  0
  5  6  1  0  0  0  0
  6 11  2  0  0  0  0
  6  7  1  0  0  0  0
  7  8  2  0  0  0  0
  8  9  1  0  0  0  0
  9 10  2  0  0  0  0
 10 11  1  0  0  0  0
  9 12  1  0  0  0  0
 12 13  2  0  0  0  0
 12 14  1  0  0  0  0
 14 15  1  0  0  0  0
 15 37  2  0  0  0  0
 15 16  1  0  0  0  0
 16 17  2  0  0  0  0
 17 18  1  0  0  0  0
 18 36  2  0  0  0  0
 18 19  1  0  0  0  0
 19 20  2  0  0  0  0
 20 21  1  0  0  0  0
 21 22  1  0  0  0  0
 22 23  1  0  0  0  0
 23 33  2  0  0  0  0
 23 24  1  0  0  0  0
 24 25  1  0  0  0  0
 24 26  2  0  0  0  0
 26 27  1  0  0  0  0
 27 28  1  0  0  0  0
 27 29  2  0  0  0  0
 29 30  1  0  0  0  0
 30 31  2  0  0  0  0
 30 32  1  0  0  0  0
 29 33  1  0  0  0  0
 33 34  1  0  0  0  0
 20 35  1  0  0  0  0
 35 36  1  0  0  0  0
 36 37  1  0  0  0  0
M  END
> <ID>
371289

$$$$
1591301
  -OEChem-05171416412D

 31 35  0     1  0  0  0  0  0999 V2000
    7.8048   -2.5081    0.0000 C   0  0  0  0  0  0  0  0  0  0  0  0
    6.9411   -2.0042    0.0000 C   0  0  0  0  0  0  0  0  0  0  0  0
    6.4372   -2.8680    0.0000 C   0  0  0  0  0  0  0  0  0  0  0  0
    7.4449   -1.1405    0.0000 C   0  0  0  0  0  0  0  0  0  0  0  0
    6.0773   -1.5004    0.0000 C   0  0  0  0  0  0  0  0  0  0  0  0
    5.2060   -2.0016    0.0000 C   0  0  0  0  0  0  0  0  0  0  0  0
    4.3422   -1.4978    0.0000 C   0  0  0  0  0  0  0  0  0  0  0  0
    4.3408   -0.4978    0.0000 C   0  0  0  0  0  0  0  0  0  0  0  0
    5.2121    0.0035    0.0000 C   0  0  0  0  0  0  0  0  0  0  0  0
    6.0848   -0.4953    0.0000 C   0  0  0  0  0  0  0  0  0  0  0  0
    3.4748    0.0023    0.0000 N   0  0  0  0  0  0  0  0  0  0  0  0
    3.4735    1.0079    0.0000 C   0  0  1  0  0  0  0  0  0  0  0  0
    4.4584    0.8349    0.0000 H   0  0  0  0  0  0  0  0  0  0  0  0
    2.6012    1.5123    0.0000 N   0  0  0  0  0  0  0  0  0  0  0  0
    1.7358    1.0056    0.0000 C   0  0  0  0  0  0  0  0  0  0  0  0
    0.8679    1.5135    0.0000 C   0  0  0  0  0  0  0  0  0  0  0  0
    0.0000    1.0056    0.0000 C   0  0  0  0  0  0  0  0  0  0  0  0
    0.0000    0.0000    0.0000 C   0  0  0  0  0  0  0  0  0  0  0  0
    0.8679   -0.4977    0.0000 C   0  0  0  0  0  0  0  0  0  0  0  0
    1.7371    0.0000    0.0000 C   0  0  0  0  0  0  0  0  0  0  0  0
    2.6038   -0.4989    0.0000 C   0  0  0  0  0  0  0  0  0  0  0  0
    2.6037   -1.4989    0.0000 O   0  0  0  0  0  0  0  0  0  0  0  0
    3.8155    1.9476    0.0000 C   0  0  0  0  0  0  0  0  0  0  0  0
    4.8066    2.1193    0.0000 C   0  0  0  0  0  0  0  0  0  0  0  0
    5.1489    3.0596    0.0000 C   0  0  0  0  0  0  0  0  0  0  0  0
    4.5114    3.8301    0.0000 C   0  0  0  0  0  0  0  0  0  0  0  0
    4.6546    4.8270    0.0000 O   0  0  0  0  0  0  0  0  0  0  0  0
    3.7506    5.2711    0.0000 C   0  0  0  0  0  0  0  0  0  0  0  0
    3.0491    4.5487    0.0000 O   0  0  0  0  0  0  0  0  0  0  0  0
    3.5191    3.6581    0.0000 C   0  0  0  0  0  0  0  0  0  0  0  0
    3.1669    2.7161    0.0000 C   0  0  0  0  0  0  0  0  0  0  0  0
  1  2  1  0  0  0  0
  2  3  1  0  0  0  0
  2  4  1  0  0  0  0
  2  5  1  0  0  0  0
  5 10  2  0  0  0  0
  5  6  1  0  0  0  0
  6  7  2  0  0  0  0
  7  8  1  0  0  0  0
  8  9  2  0  0  0  0
  9 10  1  0  0  0  0
  8 11  1  0  0  0  0
 11 21  1  0  0  0  0
 11 12  1  0  0  0  0
 12 13  1  6  0  0  0
 12 14  1  0  0  0  0
 14 15  1  0  0  0  0
 15 20  2  0  0  0  0
 15 16  1  0  0  0  0
 16 17  2  0  0  0  0
 17 18  1  0  0  0  0
 18 19  2  0  0  0  0
 19 20  1  0  0  0  0
 20 21  1  0  0  0  0
 21 22  2  0  0  0  0
 12 23  1  0  0  0  0
 23 31  2  0  0  0  0
 23 24  1  0  0  0  0
 24 25  2  0  0  0  0
 25 26  1  0  0  0  0
 26 30  2  0  0  0  0
 26 27  1  0  0  0  0
 27 28  1  0  0  0  0
 28 29  1  0  0  0  0
 29 30  1  0  0  0  0
 30 31  1  0  0  0  0
M  END
> <ID>
1591301

$$$$
1591302
  -OEChem-05171416412D

 26 28  0     1  0  0  0  0  0999 V2000
   -3.4648    1.0014    0.0000 C   0  0  0  0  0  0  0  0  0  0  0  0
   -3.4649    0.0014    0.0000 C   0  0  0  0  0  0  0  0  0  0  0  0
   -2.5989   -0.4986    0.0000 O   0  0  0  0  0  0  0  0  0  0  0  0
   -2.5989   -1.4986    0.0000 C   0  0  0  0  0  0  0  0  0  0  0  0
   -3.4643   -1.9998    0.0000 C   0  0  0  0  0  0  0  0  0  0  0  0
   -3.4687   -2.9999    0.0000 C   0  0  0  0  0  0  0  0  0  0  0  0
   -2.5989   -3.5038    0.0000 C   0  0  0  0  0  0  0  0  0  0  0  0
   -1.7247   -3.0076    0.0000 C   0  0  0  0  0  0  0  0  0  0  0  0
   -1.7291   -2.0025    0.0000 C   0  0  0  0  0  0  0  0  0  0  0  0
   -0.8638   -1.5013    0.0000 N   0  0  0  0  0  0  0  0  0  0  0  0
   -0.8653   -0.5013    0.0000 C   0  0  0  0  0  0  0  0  0  0  0  0
   -1.7320   -0.0025    0.0000 O   0  0  0  0  0  0  0  0  0  0  0  0
    0.0000    0.0000    0.0000 C   0  0  0  0  0  0  0  0  0  0  0  0
   -0.0000    1.0052    0.0000 C   0  0  0  0  0  0  0  0  0  0  0  0
   -0.8675    1.5026    0.0000 C   0  0  0  0  0  0  0  0  0  0  0  0
    0.8675    1.5129    0.0000 N   0  0  0  0  0  0  0  0  0  0  0  0
    1.7350    1.0052    0.0000 C   0  0  0  0  0  0  0  0  0  0  0  0
    2.6025    1.5026    0.0000 S   0  0  0  0  0  0  0  0  0  0  0  0
    1.7350    0.0000    0.0000 N   0  0  0  0  0  0  0  0  0  0  0  0
    0.8675   -0.4975    0.0000 C   0  0  2  0  0  0  0  0  0  0  0  0
    0.2255   -1.2642    0.0000 H   0  0  0  0  0  0  0  0  0  0  0  0
    1.5095   -1.2642    0.0000 C   0  0  0  0  0  0  0  0  0  0  0  0
    2.5089   -1.1962    0.0000 C   0  0  0  0  0  0  0  0  0  0  0  0
    2.8845   -2.1246    0.0000 C   0  0  0  0  0  0  0  0  0  0  0  0
    2.1170   -2.7657    0.0000 C   0  0  0  0  0  0  0  0  0  0  0  0
    1.2665   -2.2390    0.0000 S   0  0  0  0  0  0  0  0  0  0  0  0
  1  2  1  0  0  0  0
  2  3  1  0  0  0  0
  3  4  1  0  0  0  0
  4  9  2  0  0  0  0
  4  5  1  0  0  0  0
  5  6  2  0  0  0  0
  6  7  1  0  0  0  0
  7  8  2  0  0  0  0
  8  9  1  0  0  0  0
  9 10  1  0  0  0  0
 10 11  1  0  0  0  0
 11 12  2  0  0  0  0
 11 13  1  0  0  0  0
 13 20  1  0  0  0  0
 13 14  2  0  0  0  0
 14 15  1  0  0  0  0
 14 16  1  0  0  0  0
 16 17  1  0  0  0  0
 17 18  2  0  0  0  0
 17 19  1  0  0  0  0
 19 20  1  0  0  0  0
 20 21  1  1  0  0  0
 20 22  1  0  0  0  0
 22 26  1  0  0  0  0
 22 23  2  0  0  0  0
 23 24  1  0  0  0  0
 24 25  2  0  0  0  0
 25 26  1  0  0  0  0
M  END
> <ID>
1591302

$$$$
371316
  -OEChem-05171416412D

 29 32  0     1  0  0  0  0  0999 V2000
    8.6731   -2.0120    0.0000 C   0  0  0  0  0  0  0  0  0  0  0  0
    7.8093   -1.5081    0.0000 C   0  0  0  0  0  0  0  0  0  0  0  0
    6.9411   -2.0042    0.0000 C   0  0  3  0  0  0  0  0  0  0  0  0
    6.9366   -3.0042    0.0000 C   0  0  0  0  0  0  0  0  0  0  0  0
    6.0773   -1.5004    0.0000 C   0  0  0  0  0  0  0  0  0  0  0  0
    5.2060   -2.0016    0.0000 C   0  0  0  0  0  0  0  0  0  0  0  0
    4.3422   -1.4978    0.0000 C   0  0  0  0  0  0  0  0  0  0  0  0
    4.3408   -0.4978    0.0000 C   0  0  0  0  0  0  0  0  0  0  0  0
    5.2121    0.0035    0.0000 C   0  0  0  0  0  0  0  0  0  0  0  0
    6.0848   -0.4953    0.0000 C   0  0  0  0  0  0  0  0  0  0  0  0
    3.4748    0.0023    0.0000 N   0  0  0  0  0  0  0  0  0  0  0  0
    3.4735    1.0079    0.0000 C   0  0  3  0  0  0  0  0  0  0  0  0
    2.6012    1.5123    0.0000 N   0  0  0  0  0  0  0  0  0  0  0  0
    1.7358    1.0056    0.0000 C   0  0  0  0  0  0  0  0  0  0  0  0
    0.8679    1.5135    0.0000 C   0  0  0  0  0  0  0  0  0  0  0  0
    0.0000    1.0056    0.0000 C   0  0  0  0  0  0  0  0  0  0  0  0
    0.0000    0.0000    0.0000 C   0  0  0  0  0  0  0  0  0  0  0  0
    0.8679   -0.4977    0.0000 C   0  0  0  0  0  0  0  0  0  0  0  0
    1.7371    0.0000    0.0000 C   0  0  0  0  0  0  0  0  0  0  0  0
    2.6038   -0.4989    0.0000 C   0  0  0  0  0  0  0  0  0  0  0  0
    2.6037   -1.4989    0.0000 O   0  0  0  0  0  0  0  0  0  0  0  0
    4.3394    1.5082    0.0000 C   0  0  0  0  0  0  0  0  0  0  0  0
    4.3361    2.5134    0.0000 C   0  0  0  0  0  0  0  0  0  0  0  0
    5.2020    3.0137    0.0000 C   0  0  0  0  0  0  0  0  0  0  0  0
    6.0711    2.5190    0.0000 C   0  0  0  0  0  0  0  0  0  0  0  0
    6.9347    3.0231    0.0000 O   0  0  0  0  0  0  0  0  0  0  0  0
    6.9300    4.0231    0.0000 C   0  0  0  0  0  0  0  0  0  0  0  0
    6.0744    1.5138    0.0000 C   0  0  0  0  0  0  0  0  0  0  0  0
    5.2085    1.0033    0.0000 C   0  0  0  0  0  0  0  0  0  0  0  0
  1  2  1  0  0  0  0
  2  3  1  0  0  0  0
  3  4  1  0  0  0  0
  3  5  1  0  0  0  0
  5 10  2  0  0  0  0
  5  6  1  0  0  0  0
  6  7  2  0  0  0  0
  7  8  1  0  0  0  0
  8  9  2  0  0  0  0
  9 10  1  0  0  0  0
  8 11  1  0  0  0  0
 11 20  1  0  0  0  0
 11 12  1  0  0  0  0
 12 13  1  0  0  0  0
 13 14  1  0  0  0  0
 14 19  2  0  0  0  0
 14 15  1  0  0  0  0
 15 16  2  0  0  0  0
 16 17  1  0  0  0  0
 17 18  2  0  0  0  0
 18 19  1  0  0  0  0
 19 20  1  0  0  0  0
 20 21  2  0  0  0  0
 12 22  1  0  0  0  0
 22 29  2  0  0  0  0
 22 23  1  0  0  0  0
 23 24  2  0  0  0  0
 24 25  1  0  0  0  0
 25 26  1  0  0  0  0
 26 27  1  0  0  0  0
 25 28  2  0  0  0  0
 28 29  1  0  0  0  0
M  END
> <ID>
371316

$$$$
243976
  -OEChem-05171416412D

 20 21  0     1  0  0  0  0  0999 V2000
   -0.8596    9.5117    0.0000 C   0  0  0  0  0  0  0  0  0  0  0  0
   -1.7278    9.0155    0.0000 C   0  0  0  0  0  0  0  0  0  0  0  0
   -2.5916    9.5194    0.0000 O   0  0  0  0  0  0  0  0  0  0  0  0
   -1.7322    8.0156    0.0000 C   0  0  0  0  0  0  0  0  0  0  0  0
   -0.8624    7.5117    0.0000 C   0  0  0  0  0  0  0  0  0  0  0  0
   -0.8667    6.5117    0.0000 C   0  0  0  0  0  0  0  0  0  0  0  0
   -1.7321    6.0104    0.0000 C   0  0  0  0  0  0  0  0  0  0  0  0
   -1.7321    5.0104    0.0000 O   0  0  0  0  0  0  0  0  0  0  0  0
   -0.8660    4.5104    0.0000 C   0  0  0  0  0  0  0  0  0  0  0  0
   -0.8660    3.5104    0.0000 C   0  0  3  0  0  0  0  0  0  0  0  0
   -1.7321    3.0104    0.0000 O   0  0  0  0  0  0  0  0  0  0  0  0
   -0.0000    3.0104    0.0000 C   0  0  0  0  0  0  0  0  0  0  0  0
   -0.0000    2.0104    0.0000 N   0  0  0  0  0  0  0  0  0  0  0  0
   -0.8675    1.5027    0.0000 C   0  0  0  0  0  0  0  0  0  0  0  0
   -0.8675    0.4975    0.0000 C   0  0  0  0  0  0  0  0  0  0  0  0
    0.0000    0.0000    0.0000 C   0  0  0  0  0  0  0  0  0  0  0  0
    0.8675    0.4975    0.0000 C   0  0  0  0  0  0  0  0  0  0  0  0
    0.8675    1.5027    0.0000 C   0  0  0  0  0  0  0  0  0  0  0  0
   -2.6019    6.5143    0.0000 C   0  0  0  0  0  0  0  0  0  0  0  0
   -2.6063    7.5194    0.0000 C   0  0  0  0  0  0  0  0  0  0  0  0
  1  2  1  0  0  0  0
  2  3  2  0  0  0  0
  2  4  1  0  0  0  0
  4 20  2  0  0  0  0
  4  5  1  0  0  0  0
  5  6  2  0  0  0  0
  6  7  1  0  0  0  0
  7  8  1  0  0  0  0
  8  9  1  0  0  0  0
  9 10  1  0  0  0  0
 10 11  1  0  0  0  0
 10 12  1  0  0  0  0
 12 13  1  0  0  0  0
 13 18  1  0  0  0  0
 13 14  1  0  0  0  0
 14 15  1  0  0  0  0
 15 16  1  0  0  0  0
 16 17  1  0  0  0  0
 17 18  1  0  0  0  0
  7 19  2  0  0  0  0
 19 20  1  0  0  0  0
M  END
> <ID>
243976

$$$$
243663
  -OEChem-05171416412D

 20 21  0     1  0  0  0  0  0999 V2000
    0.0045   -6.0128    0.0000 C   0  0  0  0  0  0  0  0  0  0  0  0
    0.8734   -6.5077    0.0000 C   0  0  0  0  0  0  0  0  0  0  0  0
    0.8793   -7.5077    0.0000 O   0  0  0  0  0  0  0  0  0  0  0  0
    1.7365   -6.0026    0.0000 C   0  0  0  0  0  0  0  0  0  0  0  0
    2.6085   -6.5026    0.0000 C   0  0  0  0  0  0  0  0  0  0  0  0
    3.4716   -5.9976    0.0000 C   0  0  0  0  0  0  0  0  0  0  0  0
    3.4716   -4.9975    0.0000 C   0  0  0  0  0  0  0  0  0  0  0  0
    2.5996   -4.4975    0.0000 C   0  0  0  0  0  0  0  0  0  0  0  0
    2.5996   -3.4975    0.0000 O   0  0  0  0  0  0  0  0  0  0  0  0
    1.7335   -2.9975    0.0000 C   0  0  0  0  0  0  0  0  0  0  0  0
    1.7335   -1.9975    0.0000 C   0  0  3  0  0  0  0  0  0  0  0  0
    2.5996   -1.4975    0.0000 O   0  0  0  0  0  0  0  0  0  0  0  0
    0.8675   -1.4975    0.0000 C   0  0  0  0  0  0  0  0  0  0  0  0
    0.8675   -0.4975    0.0000 N   0  0  0  0  0  0  0  0  0  0  0  0
    0.0000    0.0000    0.0000 C   0  0  0  0  0  0  0  0  0  0  0  0
   -0.0000    1.0052    0.0000 C   0  0  0  0  0  0  0  0  0  0  0  0
    0.8675    1.5129    0.0000 O   0  0  0  0  0  0  0  0  0  0  0  0
    1.7350    1.0052    0.0000 C   0  0  0  0  0  0  0  0  0  0  0  0
    1.7350    0.0000    0.0000 C   0  0  0  0  0  0  0  0  0  0  0  0
    1.7276   -4.9975    0.0000 C   0  0  0  0  0  0  0  0  0  0  0  0
  1  2  1  0  0  0  0
  2  3  2  0  0  0  0
  2  4  1  0  0  0  0
  4 20  2  0  0  0  0
  4  5  1  0  0  0  0
  5  6  2  0  0  0  0
  6  7  1  0  0  0  0
  7  8  2  0  0  0  0
  8  9  1  0  0  0  0
  9 10  1  0  0  0  0
 10 11  1  0  0  0  0
 11 12  1  0  0  0  0
 11 13  1  0  0  0  0
 13 14  1  0  0  0  0
 14 19  1  0  0  0  0
 14 15  1  0  0  0  0
 15 16  1  0  0  0  0
 16 17  1  0  0  0  0
 17 18  1  0  0  0  0
 18 19  1  0  0  0  0
  8 20  1  0  0  0  0
M  END
> <ID>
243663

$$$$
238220
  -OEChem-05171416412D

 21 22  0     1  0  0  0  0  0999 V2000
    5.2006   -2.9949    0.0000 C   0  0  0  0  0  0  0  0  0  0  0  0
    4.3353   -3.4962    0.0000 C   0  0  0  0  0  0  0  0  0  0  0  0
    4.3368   -4.4962    0.0000 C   0  0  0  0  0  0  0  0  0  0  0  0
    5.2036   -4.9949    0.0000 O   0  0  0  0  0  0  0  0  0  0  0  0
    3.4716   -4.9975    0.0000 C   0  0  0  0  0  0  0  0  0  0  0  0
    3.4716   -5.9976    0.0000 C   0  0  0  0  0  0  0  0  0  0  0  0
    2.6085   -6.5026    0.0000 C   0  0  0  0  0  0  0  0  0  0  0  0
    1.7365   -6.0026    0.0000 C   0  0  0  0  0  0  0  0  0  0  0  0
    1.7276   -4.9975    0.0000 C   0  0  0  0  0  0  0  0  0  0  0  0
    2.5996   -4.4975    0.0000 C   0  0  0  0  0  0  0  0  0  0  0  0
    2.5996   -3.4975    0.0000 O   0  0  0  0  0  0  0  0  0  0  0  0
    1.7335   -2.9975    0.0000 C   0  0  0  0  0  0  0  0  0  0  0  0
    1.7335   -1.9975    0.0000 C   0  0  3  0  0  0  0  0  0  0  0  0
    2.5996   -1.4975    0.0000 O   0  0  0  0  0  0  0  0  0  0  0  0
    0.8675   -1.4975    0.0000 C   0  0  0  0  0  0  0  0  0  0  0  0
    0.8675   -0.4975    0.0000 N   0  0  0  0  0  0  0  0  0  0  0  0
    0.0000    0.0000    0.0000 C   0  0  0  0  0  0  0  0  0  0  0  0
   -0.0000    1.0052    0.0000 C   0  0  0  0  0  0  0  0  0  0  0  0
    0.8675    1.5129    0.0000 O   0  0  0  0  0  0  0  0  0  0  0  0
    1.7350    1.0052    0.0000 C   0  0  0  0  0  0  0  0  0  0  0  0
    1.7350    0.0000    0.0000 C   0  0  0  0  0  0  0  0  0  0  0  0
  1  2  1  0  0  0  0
  2  3  1  0  0  0  0
  3  4  2  0  0  0  0
  3  5  1  0  0  0  0
  5 10  2  0  0  0  0
  5  6  1  0  0  0  0
  6  7  2  0  0  0  0
  7  8  1  0  0  0  0
  8  9  2  0  0  0  0
  9 10  1  0  0  0  0
 10 11  1  0  0  0  0
 11 12  1  0  0  0  0
 12 13  1  0  0  0  0
 13 14  1  0  0  0  0
 13 15  1  0  0  0  0
 15 16  1  0  0  0  0
 16 21  1  0  0  0  0
 16 17  1  0  0  0  0
 17 18  1  0  0  0  0
 18 19  1  0  0  0  0
 19 20  1  0  0  0  0
 20 21  1  0  0  0  0
M  END
> <ID>
238220

$$$$
371453
  -OEChem-05171416412D

 20 21  0     1  0  0  0  0  0999 V2000
    5.2036   -4.9949    0.0000 C   0  0  0  0  0  0  0  0  0  0  0  0
    4.3368   -4.4962    0.0000 C   0  0  0  0  0  0  0  0  0  0  0  0
    4.3353   -3.4962    0.0000 O   0  0  0  0  0  0  0  0  0  0  0  0
    3.4716   -4.9975    0.0000 C   0  0  0  0  0  0  0  0  0  0  0  0
    3.4716   -5.9976    0.0000 C   0  0  0  0  0  0  0  0  0  0  0  0
    2.6085   -6.5026    0.0000 C   0  0  0  0  0  0  0  0  0  0  0  0
    1.7365   -6.0026    0.0000 C   0  0  0  0  0  0  0  0  0  0  0  0
    1.7276   -4.9975    0.0000 C   0  0  0  0  0  0  0  0  0  0  0  0
    2.5996   -4.4975    0.0000 C   0  0  0  0  0  0  0  0  0  0  0  0
    2.5996   -3.4975    0.0000 O   0  0  0  0  0  0  0  0  0  0  0  0
    1.7335   -2.9975    0.0000 C   0  0  0  0  0  0  0  0  0  0  0  0
    1.7335   -1.9975    0.0000 C   0  0  3  0  0  0  0  0  0  0  0  0
    2.5996   -1.4975    0.0000 O   0  0  0  0  0  0  0  0  0  0  0  0
    0.8675   -1.4975    0.0000 C   0  0  0  0  0  0  0  0  0  0  0  0
    0.8675   -0.4975    0.0000 N   0  0  0  0  0  0  0  0  0  0  0  0
    0.0000    0.0000    0.0000 C   0  0  0  0  0  0  0  0  0  0  0  0
   -0.0000    1.0052    0.0000 C   0  0  0  0  0  0  0  0  0  0  0  0
    0.8675    1.5129    0.0000 O   0  0  0  0  0  0  0  0  0  0  0  0
    1.7350    1.0052    0.0000 C   0  0  0  0  0  0  0  0  0  0  0  0
    1.7350    0.0000    0.0000 C   0  0  0  0  0  0  0  0  0  0  0  0
  1  2  1  0  0  0  0
  2  3  2  0  0  0  0
  2  4  1  0  0  0  0
  4  9  2  0  0  0  0
  4  5  1  0  0  0  0
  5  6  2  0  0  0  0
  6  7  1  0  0  0  0
  7  8  2  0  0  0  0
  8  9  1  0  0  0  0
  9 10  1  0  0  0  0
 10 11  1  0  0  0  0
 11 12  1  0  0  0  0
 12 13  1  0  0  0  0
 12 14  1  0  0  0  0
 14 15  1  0  0  0  0
 15 20  1  0  0  0  0
 15 16  1  0  0  0  0
 16 17  1  0  0  0  0
 17 18  1  0  0  0  0
 18 19  1  0  0  0  0
 19 20  1  0  0  0  0
M  END
> <ID>
371453

$$$$
371452
  -OEChem-05171416412D

 37 40  0     1  0  0  0  0  0999 V2000
   -8.6709    7.0123    0.0000 C   0  0  0  0  0  0  0  0  0  0  0  0
   -7.8034    7.5098    0.0000 N   0  0  0  0  0  0  0  0  0  0  0  0
   -7.8005    8.5098    0.0000 C   0  0  0  0  0  0  0  0  0  0  0  0
   -6.9388    7.0073    0.0000 C   0  0  0  0  0  0  0  0  0  0  0  0
   -6.0683    7.5099    0.0000 C   0  0  0  0  0  0  0  0  0  0  0  0
   -5.2037    7.0075    0.0000 C   0  0  0  0  0  0  0  0  0  0  0  0
   -5.2008    6.0074    0.0000 C   0  0  0  0  0  0  0  0  0  0  0  0
   -4.3340    5.5087    0.0000 C   0  0  0  0  0  0  0  0  0  0  0  0
   -3.4687    6.0100    0.0000 C   0  0  0  0  0  0  0  0  0  0  0  0
   -2.6019    5.5113    0.0000 C   0  0  0  0  0  0  0  0  0  0  0  0
   -2.6004    4.5113    0.0000 O   0  0  0  0  0  0  0  0  0  0  0  0
   -1.7367    6.0126    0.0000 C   0  0  0  0  0  0  0  0  0  0  0  0
   -1.7367    7.0127    0.0000 C   0  0  0  0  0  0  0  0  0  0  0  0
   -0.8736    7.5177    0.0000 C   0  0  0  0  0  0  0  0  0  0  0  0
   -0.0016    7.0177    0.0000 C   0  0  0  0  0  0  0  0  0  0  0  0
    0.0073    6.0126    0.0000 C   0  0  0  0  0  0  0  0  0  0  0  0
   -0.8647    5.5126    0.0000 C   0  0  0  0  0  0  0  0  0  0  0  0
   -0.8647    4.5126    0.0000 O   0  0  0  0  0  0  0  0  0  0  0  0
    0.0014    4.0126    0.0000 C   0  0  0  0  0  0  0  0  0  0  0  0
    0.0014    3.0126    0.0000 C   0  0  3  0  0  0  0  0  0  0  0  0
   -0.8647    2.5126    0.0000 O   0  0  0  0  0  0  0  0  0  0  0  0
    0.8674    2.5126    0.0000 C   0  0  0  0  0  0  0  0  0  0  0  0
    0.8674    1.5126    0.0000 N   0  0  0  0  0  0  0  0  0  0  0  0
    0.0000    1.0051    0.0000 C   0  0  0  0  0  0  0  0  0  0  0  0
    0.0000    0.0000    0.0000 C   0  0  0  0  0  0  0  0  0  0  0  0
    0.8674   -0.4976    0.0000 N   0  0  0  0  0  0  0  0  0  0  0  0
    1.7348    0.0000    0.0000 C   0  0  0  0  0  0  0  0  0  0  0  0
    1.7348    1.0051    0.0000 C   0  0  0  0  0  0  0  0  0  0  0  0
    0.8674   -1.4976    0.0000 C   0  0  0  0  0  0  0  0  0  0  0  0
    1.7327   -1.9989    0.0000 C   0  0  0  0  0  0  0  0  0  0  0  0
    1.7371   -2.9989    0.0000 C   0  0  0  0  0  0  0  0  0  0  0  0
    0.8673   -3.5028    0.0000 C   0  0  0  0  0  0  0  0  0  0  0  0
   -0.0069   -3.0066    0.0000 C   0  0  0  0  0  0  0  0  0  0  0  0
   -0.0024   -2.0015    0.0000 C   0  0  0  0  0  0  0  0  0  0  0  0
   -0.8677   -1.5002    0.0000 C   0  0  0  0  0  0  0  0  0  0  0  0
   -6.0713    5.5048    0.0000 C   0  0  0  0  0  0  0  0  0  0  0  0
   -6.9447    6.0022    0.0000 C   0  0  0  0  0  0  0  0  0  0  0  0
  1  2  1  0  0  0  0
  2  3  1  0  0  0  0
  2  4  1  0  0  0  0
  4 37  2  0  0  0  0
  4  5  1  0  0  0  0
  5  6  2  0  0  0  0
  6  7  1  0  0  0  0
  7  8  1  0  0  0  0
  8  9  1  0  0  0  0
  9 10  1  0  0  0  0
 10 11  2  0  0  0  0
 10 12  1  0  0  0  0
 12 17  2  0  0  0  0
 12 13  1  0  0  0  0
 13 14  2  0  0  0  0
 14 15  1  0  0  0  0
 15 16  2  0  0  0  0
 16 17  1  0  0  0  0
 17 18  1  0  0  0  0
 18 19  1  0  0  0  0
 19 20  1  0  0  0  0
 20 21  1  0  0  0  0
 20 22  1  0  0  0  0
 22 23  1  0  0  0  0
 23 28  1  0  0  0  0
 23 24  1  0  0  0  0
 24 25  1  0  0  0  0
 25 26  1  0  0  0  0
 26 27  1  0  0  0  0
 27 28  1  0  0  0  0
 26 29  1  0  0  0  0
 29 34  2  0  0  0  0
 29 30  1  0  0  0  0
 30 31  2  0  0  0  0
 31 32  1  0  0  0  0
 32 33  2  0  0  0  0
 33 34  1  0  0  0  0
 34 35  1  0  0  0  0
  7 36  2  0  0  0  0
 36 37  1  0  0  0  0
M  END
> <ID>
371452

$$$$
371431
  -OEChem-05171416412D

 35 38  0     1  0  0  0  0  0999 V2000
    2.5935    4.5228    0.0000 C   0  0  0  0  0  0  0  0  0  0  0  0
    1.7305    4.0177    0.0000 C   0  0  0  0  0  0  0  0  0  0  0  0
    0.8585    4.5177    0.0000 C   0  0  0  0  0  0  0  0  0  0  0  0
   -0.0047    4.0127    0.0000 C   0  0  0  0  0  0  0  0  0  0  0  0
   -0.0046    3.0126    0.0000 C   0  0  0  0  0  0  0  0  0  0  0  0
    0.8674    2.5126    0.0000 C   0  0  0  0  0  0  0  0  0  0  0  0
    0.8674    1.5126    0.0000 N   0  0  0  0  0  0  0  0  0  0  0  0
    0.0000    1.0051    0.0000 C   0  0  0  0  0  0  0  0  0  0  0  0
    0.0000    0.0000    0.0000 C   0  0  0  0  0  0  0  0  0  0  0  0
    0.8674   -0.4976    0.0000 N   0  0  0  0  0  0  0  0  0  0  0  0
    0.8674   -1.4976    0.0000 C   0  0  0  0  0  0  0  0  0  0  0  0
    1.7334   -1.9976    0.0000 C   0  0  3  0  0  0  0  0  0  0  0  0
    2.5995   -1.4976    0.0000 O   0  0  0  0  0  0  0  0  0  0  0  0
    1.7334   -2.9976    0.0000 C   0  0  0  0  0  0  0  0  0  0  0  0
    2.5995   -3.4976    0.0000 O   0  0  0  0  0  0  0  0  0  0  0  0
    2.5995   -4.4976    0.0000 C   0  0  0  0  0  0  0  0  0  0  0  0
    3.4648   -4.9989    0.0000 C   0  0  0  0  0  0  0  0  0  0  0  0
    3.4691   -5.9989    0.0000 C   0  0  0  0  0  0  0  0  0  0  0  0
    2.5993   -6.5028    0.0000 C   0  0  0  0  0  0  0  0  0  0  0  0
    1.7252   -6.0066    0.0000 C   0  0  0  0  0  0  0  0  0  0  0  0
    1.7297   -5.0015    0.0000 C   0  0  0  0  0  0  0  0  0  0  0  0
    0.8644   -4.5002    0.0000 C   0  0  0  0  0  0  0  0  0  0  0  0
    0.8659   -3.5002    0.0000 O   0  0  0  0  0  0  0  0  0  0  0  0
   -0.0024   -4.9989    0.0000 C   0  0  0  0  0  0  0  0  0  0  0  0
   -0.8677   -4.4976    0.0000 C   0  0  0  0  0  0  0  0  0  0  0  0
   -1.7344   -4.9963    0.0000 C   0  0  0  0  0  0  0  0  0  0  0  0
   -1.7330   -6.0015    0.0000 C   0  0  0  0  0  0  0  0  0  0  0  0
   -2.5998   -6.5002    0.0000 C   0  0  0  0  0  0  0  0  0  0  0  0
   -3.4680   -6.0040    0.0000 C   0  0  0  0  0  0  0  0  0  0  0  0
   -3.4694   -4.9988    0.0000 C   0  0  0  0  0  0  0  0  0  0  0  0
   -2.6027   -4.4898    0.0000 C   0  0  0  0  0  0  0  0  0  0  0  0
    1.7348    0.0000    0.0000 C   0  0  0  0  0  0  0  0  0  0  0  0
    1.7348    1.0051    0.0000 C   0  0  0  0  0  0  0  0  0  0  0  0
    1.7394    3.0126    0.0000 C   0  0  0  0  0  0  0  0  0  0  0  0
    2.6069    2.5152    0.0000 C   0  0  0  0  0  0  0  0  0  0  0  0
  1  2  1  0  0  0  0
  2 34  2  0  0  0  0
  2  3  1  0  0  0  0
  3  4  2  0  0  0  0
  4  5  1  0  0  0  0
  5  6  2  0  0  0  0
  6  7  1  0  0  0  0
  7 33  1  0  0  0  0
  7  8  1  0  0  0  0
  8  9  1  0  0  0  0
  9 10  1  0  0  0  0
 10 11  1  0  0  0  0
 11 12  1  0  0  0  0
 12 13  1  0  0  0  0
 12 14  1  0  0  0  0
 14 15  1  0  0  0  0
 15 16  1  0  0  0  0
 16 21  2  0  0  0  0
 16 17  1  0  0  0  0
 17 18  2  0  0  0  0
 18 19  1  0  0  0  0
 19 20  2  0  0  0  0
 20 21  1  0  0  0  0
 21 22  1  0  0  0  0
 22 23  2  0  0  0  0
 22 24  1  0  0  0  0
 24 25  1  0  0  0  0
 25 26  1  0  0  0  0
 26 31  2  0  0  0  0
 26 27  1  0  0  0  0
 27 28  2  0  0  0  0
 28 29  1  0  0  0  0
 29 30  2  0  0  0  0
 30 31  1  0  0  0  0
 10 32  1  0  0  0  0
 32 33  1  0  0  0  0
  6 34  1  0  0  0  0
 34 35  1  0  0  0  0
M  END
> <ID>
371431

$$$$
371509
  -OEChem-05171416412D

 34 37  0     0  0  0  0  0  0999 V2000
    9.7909    1.3600    0.0000 C   0  0  0  0  0  0  0  0  0  0  0  0
    8.7909    1.3644    0.0000 C   0  0  0  0  0  0  0  0  0  0  0  0
    8.7866    0.3644    0.0000 C   0  0  0  0  0  0  0  0  0  0  0  0
    8.7952    2.3644    0.0000 C   0  0  0  0  0  0  0  0  0  0  0  0
    7.7909    1.3687    0.0000 C   0  0  0  0  0  0  0  0  0  0  0  0
    7.2871    0.4989    0.0000 C   0  0  0  0  0  0  0  0  0  0  0  0
    6.2871    0.5032    0.0000 C   0  0  0  0  0  0  0  0  0  0  0  0
    5.7857    1.3685    0.0000 C   0  0  0  0  0  0  0  0  0  0  0  0
    4.7857    1.3684    0.0000 C   0  0  0  0  0  0  0  0  0  0  0  0
    4.2858    0.5024    0.0000 S   0  0  0  0  0  0  0  0  0  0  0  0
    3.2858    0.5023    0.0000 C   0  0  0  0  0  0  0  0  0  0  0  0
    2.6938   -0.3125    0.0000 N   0  0  0  0  0  0  0  0  0  0  0  0
    1.7360   -0.0012    0.0000 C   0  0  0  0  0  0  0  0  0  0  0  0
    0.8680   -0.4978    0.0000 C   0  0  0  0  0  0  0  0  0  0  0  0
    0.0000    0.0000    0.0000 C   0  0  0  0  0  0  0  0  0  0  0  0
    0.0000    1.0058    0.0000 C   0  0  0  0  0  0  0  0  0  0  0  0
   -0.8675    1.5032    0.0000 N   0  0  0  0  0  0  0  0  0  0  0  0
   -1.7320    1.0007    0.0000 C   0  0  0  0  0  0  0  0  0  0  0  0
   -1.7291    0.0007    0.0000 O   0  0  0  0  0  0  0  0  0  0  0  0
   -2.5995    1.4981    0.0000 C   0  0  0  0  0  0  0  0  0  0  0  0
   -3.4671    0.9904    0.0000 C   0  0  0  0  0  0  0  0  0  0  0  0
   -4.3346    1.4878    0.0000 C   0  0  0  0  0  0  0  0  0  0  0  0
   -4.3434    2.4878    0.0000 C   0  0  0  0  0  0  0  0  0  0  0  0
   -3.4759    2.9955    0.0000 C   0  0  0  0  0  0  0  0  0  0  0  0
   -2.5995    2.5033    0.0000 C   0  0  0  0  0  0  0  0  0  0  0  0
   -5.2131    2.9814    0.0000 C   0  0  0  0  0  0  0  0  0  0  0  0
   -5.7067    2.1117    0.0000 C   0  0  0  0  0  0  0  0  0  0  0  0
   -4.7195    3.8511    0.0000 C   0  0  0  0  0  0  0  0  0  0  0  0
   -6.0828    3.4750    0.0000 C   0  0  0  0  0  0  0  0  0  0  0  0
    0.8680    1.5138    0.0000 C   0  0  0  0  0  0  0  0  0  0  0  0
    1.7360    1.0058    0.0000 C   0  0  0  0  0  0  0  0  0  0  0  0
    2.6938    1.3169    0.0000 S   0  0  0  0  0  0  0  0  0  0  0  0
    6.2896    2.2383    0.0000 C   0  0  0  0  0  0  0  0  0  0  0  0
    7.2947    2.2428    0.0000 C   0  0  0  0  0  0  0  0  0  0  0  0
  1  2  1  0  0  0  0
  2  3  1  0  0  0  0
  2  4  1  0  0  0  0
  2  5  1  0  0  0  0
  5 34  2  0  0  0  0
  5  6  1  0  0  0  0
  6  7  2  0  0  0  0
  7  8  1  0  0  0  0
  8  9  1  0  0  0  0
  9 10  1  0  0  0  0
 10 11  1  0  0  0  0
 11 32  1  0  0  0  0
 11 12  2  0  0  0  0
 12 13  1  0  0  0  0
 13 31  2  0  0  0  0
 13 14  1  0  0  0  0
 14 15  2  0  0  0  0
 15 16  1  0  0  0  0
 16 17  1  0  0  0  0
 17 18  1  0  0  0  0
 18 19  2  0  0  0  0
 18 20  1  0  0  0  0
 20 25  2  0  0  0  0
 20 21  1  0  0  0  0
 21 22  2  0  0  0  0
 22 23  1  0  0  0  0
 23 24  2  0  0  0  0
 24 25  1  0  0  0  0
 23 26  1  0  0  0  0
 26 27  1  0  0  0  0
 26 28  1  0  0  0  0
 26 29  1  0  0  0  0
 16 30  2  0  0  0  0
 30 31  1  0  0  0  0
 31 32  1  0  0  0  0
  8 33  2  0  0  0  0
 33 34  1  0  0  0  0
M  END
> <ID>
371509

$$$$
371508
  -OEChem-05171416412D

 34 38  0     0  0  0  0  0  0999 V2000
   -6.0697    3.4980    0.0000 C   0  0  0  0  0  0  0  0  0  0  0  0
   -5.2044    2.9967    0.0000 C   0  0  0  0  0  0  0  0  0  0  0  0
   -4.7031    3.8620    0.0000 C   0  0  0  0  0  0  0  0  0  0  0  0
   -5.7056    2.1314    0.0000 C   0  0  0  0  0  0  0  0  0  0  0  0
   -4.3391    2.4955    0.0000 C   0  0  0  0  0  0  0  0  0  0  0  0
   -3.4693    2.9994    0.0000 C   0  0  0  0  0  0  0  0  0  0  0  0
   -2.6039    2.4981    0.0000 C   0  0  0  0  0  0  0  0  0  0  0  0
   -2.5995    1.4981    0.0000 C   0  0  0  0  0  0  0  0  0  0  0  0
   -3.4693    0.9942    0.0000 C   0  0  0  0  0  0  0  0  0  0  0  0
   -4.3435    1.4903    0.0000 C   0  0  0  0  0  0  0  0  0  0  0  0
   -1.7320    1.0007    0.0000 C   0  0  0  0  0  0  0  0  0  0  0  0
   -1.7291    0.0007    0.0000 O   0  0  0  0  0  0  0  0  0  0  0  0
   -0.8675    1.5032    0.0000 N   0  0  0  0  0  0  0  0  0  0  0  0
    0.0000    1.0058    0.0000 C   0  0  0  0  0  0  0  0  0  0  0  0
    0.0000    0.0000    0.0000 C   0  0  0  0  0  0  0  0  0  0  0  0
    0.8680   -0.4978    0.0000 C   0  0  0  0  0  0  0  0  0  0  0  0
    1.7360   -0.0012    0.0000 C   0  0  0  0  0  0  0  0  0  0  0  0
    2.6938   -0.3125    0.0000 N   0  0  0  0  0  0  0  0  0  0  0  0
    3.2858    0.5023    0.0000 C   0  0  0  0  0  0  0  0  0  0  0  0
    4.2858    0.5024    0.0000 S   0  0  0  0  0  0  0  0  0  0  0  0
    4.7857    1.3684    0.0000 C   0  0  0  0  0  0  0  0  0  0  0  0
    5.7857    1.3685    0.0000 C   0  0  0  0  0  0  0  0  0  0  0  0
    6.2925    2.2394    0.0000 C   0  0  0  0  0  0  0  0  0  0  0  0
    7.2982    2.2381    0.0000 C   0  0  0  0  0  0  0  0  0  0  0  0
    7.7970    1.3658    0.0000 C   0  0  0  0  0  0  0  0  0  0  0  0
    7.2959    0.5004    0.0000 C   0  0  0  0  0  0  0  0  0  0  0  0
    7.7914   -0.3701    0.0000 C   0  0  0  0  0  0  0  0  0  0  0  0
    7.2913   -1.2367    0.0000 C   0  0  0  0  0  0  0  0  0  0  0  0
    6.2856   -1.2340    0.0000 C   0  0  0  0  0  0  0  0  0  0  0  0
    5.7801   -0.3648    0.0000 C   0  0  0  0  0  0  0  0  0  0  0  0
    6.2902    0.5017    0.0000 C   0  0  0  0  0  0  0  0  0  0  0  0
    2.6938    1.3169    0.0000 S   0  0  0  0  0  0  0  0  0  0  0  0
    1.7360    1.0058    0.0000 C   0  0  0  0  0  0  0  0  0  0  0  0
    0.8680    1.5138    0.0000 C   0  0  0  0  0  0  0  0  0  0  0  0
  1  2  1  0  0  0  0
  2  3  1  0  0  0  0
  2  4  1  0  0  0  0
  2  5  1  0  0  0  0
  5 10  2  0  0  0  0
  5  6  1  0  0  0  0
  6  7  2  0  0  0  0
  7  8  1  0  0  0  0
  8  9  2  0  0  0  0
  9 10  1  0  0  0  0
  8 11  1  0  0  0  0
 11 12  2  0  0  0  0
 11 13  1  0  0  0  0
 13 14  1  0  0  0  0
 14 34  2  0  0  0  0
 14 15  1  0  0  0  0
 15 16  2  0  0  0  0
 16 17  1  0  0  0  0
 17 33  2  0  0  0  0
 17 18  1  0  0  0  0
 18 19  2  0  0  0  0
 19 20  1  0  0  0  0
 20 21  1  0  0  0  0
 21 22  1  0  0  0  0
 22 31  2  0  0  0  0
 22 23  1  0  0  0  0
 23 24  2  0  0  0  0
 24 25  1  0  0  0  0
 25 26  2  0  0  0  0
 26 31  1  0  0  0  0
 26 27  1  0  0  0  0
 27 28  2  0  0  0  0
 28 29  1  0  0  0  0
 29 30  2  0  0  0  0
 30 31  1  0  0  0  0
 19 32  1  0  0  0  0
 32 33  1  0  0  0  0
 33 34  1  0  0  0  0
M  END
> <ID>
371508

$$$$
371501
  -OEChem-05171416412D

 36 40  0     0  0  0  0  0  0999 V2000
    7.3012   -1.2265    0.0000 C   0  0  0  0  0  0  0  0  0  0  0  0
    7.7961   -0.3575    0.0000 C   0  0  0  0  0  0  0  0  0  0  0  0
    8.7960   -0.3516    0.0000 O   0  0  0  0  0  0  0  0  0  0  0  0
    7.2909    0.5055    0.0000 C   0  0  0  0  0  0  0  0  0  0  0  0
    7.7909    1.3775    0.0000 C   0  0  0  0  0  0  0  0  0  0  0  0
    8.7909    1.3820    0.0000 C   0  0  0  0  0  0  0  0  0  0  0  0
    7.2858    2.2406    0.0000 C   0  0  0  0  0  0  0  0  0  0  0  0
    6.2857    2.2405    0.0000 C   0  0  0  0  0  0  0  0  0  0  0  0
    5.7844    3.1058    0.0000 C   0  0  0  0  0  0  0  0  0  0  0  0
    5.7857    1.3685    0.0000 C   0  0  0  0  0  0  0  0  0  0  0  0
    4.7857    1.3684    0.0000 C   0  0  0  0  0  0  0  0  0  0  0  0
    4.2858    0.5024    0.0000 S   0  0  0  0  0  0  0  0  0  0  0  0
    3.2858    0.5023    0.0000 C   0  0  0  0  0  0  0  0  0  0  0  0
    2.6938   -0.3125    0.0000 N   0  0  0  0  0  0  0  0  0  0  0  0
    1.7360   -0.0012    0.0000 C   0  0  0  0  0  0  0  0  0  0  0  0
    0.8680   -0.4978    0.0000 C   0  0  0  0  0  0  0  0  0  0  0  0
    0.0000    0.0000    0.0000 C   0  0  0  0  0  0  0  0  0  0  0  0
    0.0000    1.0058    0.0000 C   0  0  0  0  0  0  0  0  0  0  0  0
   -0.8675    1.5032    0.0000 N   0  0  0  0  0  0  0  0  0  0  0  0
   -1.7320    1.0007    0.0000 C   0  0  0  0  0  0  0  0  0  0  0  0
   -1.7291    0.0007    0.0000 O   0  0  0  0  0  0  0  0  0  0  0  0
   -2.5995    1.4981    0.0000 C   0  0  0  0  0  0  0  0  0  0  0  0
   -3.4725    0.9947    0.0000 C   0  0  0  0  0  0  0  0  0  0  0  0
   -4.3442    1.4962    0.0000 C   0  0  0  0  0  0  0  0  0  0  0  0
   -4.3430    2.5010    0.0000 C   0  0  0  0  0  0  0  0  0  0  0  0
   -3.4777    3.0024    0.0000 C   0  0  0  0  0  0  0  0  0  0  0  0
   -3.4745    4.0041    0.0000 C   0  0  0  0  0  0  0  0  0  0  0  0
   -2.6096    4.5070    0.0000 C   0  0  0  0  0  0  0  0  0  0  0  0
   -1.7385    4.0044    0.0000 C   0  0  0  0  0  0  0  0  0  0  0  0
   -1.7324    2.9989    0.0000 C   0  0  0  0  0  0  0  0  0  0  0  0
   -2.6059    2.5009    0.0000 C   0  0  0  0  0  0  0  0  0  0  0  0
    0.8680    1.5138    0.0000 C   0  0  0  0  0  0  0  0  0  0  0  0
    1.7360    1.0058    0.0000 C   0  0  0  0  0  0  0  0  0  0  0  0
    2.6938    1.3169    0.0000 S   0  0  0  0  0  0  0  0  0  0  0  0
    6.2858    0.4965    0.0000 C   0  0  0  0  0  0  0  0  0  0  0  0
    5.7884   -0.3710    0.0000 C   0  0  0  0  0  0  0  0  0  0  0  0
  1  2  1  0  0  0  0
  2  3  2  0  0  0  0
  2  4  1  0  0  0  0
  4 35  2  0  0  0  0
  4  5  1  0  0  0  0
  5  6  1  0  0  0  0
  5  7  2  0  0  0  0
  7  8  1  0  0  0  0
  8  9  1  0  0  0  0
  8 10  2  0  0  0  0
 10 11  1  0  0  0  0
 11 12  1  0  0  0  0
 12 13  1  0  0  0  0
 13 34  1  0  0  0  0
 13 14  2  0  0  0  0
 14 15  1  0  0  0  0
 15 33  2  0  0  0  0
 15 16  1  0  0  0  0
 16 17  2  0  0  0  0
 17 18  1  0  0  0  0
 18 19  1  0  0  0  0
 19 20  1  0  0  0  0
 20 21  2  0  0  0  0
 20 22  1  0  0  0  0
 22 31  2  0  0  0  0
 22 23  1  0  0  0  0
 23 24  2  0  0  0  0
 24 25  1  0  0  0  0
 25 26  2  0  0  0  0
 26 31  1  0  0  0  0
 26 27  1  0  0  0  0
 27 28  2  0  0  0  0
 28 29  1  0  0  0  0
 29 30  2  0  0  0  0
 30 31  1  0  0  0  0
 18 32  2  0  0  0  0
 32 33  1  0  0  0  0
 33 34  1  0  0  0  0
 10 35  1  0  0  0  0
 35 36  1  0  0  0  0
M  END
> <ID>
371501

$$$$
371500
  -OEChem-05171416412D

 34 37  0     0  0  0  0  0  0999 V2000
    7.3012   -1.2265    0.0000 C   0  0  0  0  0  0  0  0  0  0  0  0
    7.7961   -0.3575    0.0000 C   0  0  0  0  0  0  0  0  0  0  0  0
    8.7960   -0.3516    0.0000 O   0  0  0  0  0  0  0  0  0  0  0  0
    7.2909    0.5055    0.0000 C   0  0  0  0  0  0  0  0  0  0  0  0
    7.7909    1.3775    0.0000 C   0  0  0  0  0  0  0  0  0  0  0  0
    8.7909    1.3820    0.0000 C   0  0  0  0  0  0  0  0  0  0  0  0
    7.2858    2.2406    0.0000 C   0  0  0  0  0  0  0  0  0  0  0  0
    6.2857    2.2405    0.0000 C   0  0  0  0  0  0  0  0  0  0  0  0
    5.7844    3.1058    0.0000 C   0  0  0  0  0  0  0  0  0  0  0  0
    5.7857    1.3685    0.0000 C   0  0  0  0  0  0  0  0  0  0  0  0
    4.7857    1.3684    0.0000 C   0  0  0  0  0  0  0  0  0  0  0  0
    4.2858    0.5024    0.0000 S   0  0  0  0  0  0  0  0  0  0  0  0
    3.2858    0.5023    0.0000 C   0  0  0  0  0  0  0  0  0  0  0  0
    2.6938   -0.3125    0.0000 N   0  0  0  0  0  0  0  0  0  0  0  0
    1.7360   -0.0012    0.0000 C   0  0  0  0  0  0  0  0  0  0  0  0
    0.8680   -0.4978    0.0000 C   0  0  0  0  0  0  0  0  0  0  0  0
    0.0000    0.0000    0.0000 C   0  0  0  0  0  0  0  0  0  0  0  0
    0.0000    1.0058    0.0000 C   0  0  0  0  0  0  0  0  0  0  0  0
   -0.8675    1.5032    0.0000 N   0  0  0  0  0  0  0  0  0  0  0  0
   -1.7320    1.0007    0.0000 C   0  0  0  0  0  0  0  0  0  0  0  0
   -1.7291    0.0007    0.0000 O   0  0  0  0  0  0  0  0  0  0  0  0
   -2.5995    1.4981    0.0000 C   0  0  0  0  0  0  0  0  0  0  0  0
   -3.4641    0.9956    0.0000 C   0  0  0  0  0  0  0  0  0  0  0  0
   -4.3316    1.4930    0.0000 C   0  0  0  0  0  0  0  0  0  0  0  0
   -5.1991    0.9853    0.0000 C   0  0  0  0  0  0  0  0  0  0  0  0
   -6.0667    1.4827    0.0000 C   0  0  0  0  0  0  0  0  0  0  0  0
   -6.0755    2.4827    0.0000 C   0  0  0  0  0  0  0  0  0  0  0  0
   -5.2079    2.9904    0.0000 C   0  0  0  0  0  0  0  0  0  0  0  0
   -4.3316    2.4982    0.0000 C   0  0  0  0  0  0  0  0  0  0  0  0
    0.8680    1.5138    0.0000 C   0  0  0  0  0  0  0  0  0  0  0  0
    1.7360    1.0058    0.0000 C   0  0  0  0  0  0  0  0  0  0  0  0
    2.6938    1.3169    0.0000 S   0  0  0  0  0  0  0  0  0  0  0  0
    6.2858    0.4965    0.0000 C   0  0  0  0  0  0  0  0  0  0  0  0
    5.7884   -0.3710    0.0000 C   0  0  0  0  0  0  0  0  0  0  0  0
  1  2  1  0  0  0  0
  2  3  2  0  0  0  0
  2  4  1  0  0  0  0
  4 33  2  0  0  0  0
  4  5  1  0  0  0  0
  5  6  1  0  0  0  0
  5  7  2  0  0  0  0
  7  8  1  0  0  0  0
  8  9  1  0  0  0  0
  8 10  2  0  0  0  0
 10 11  1  0  0  0  0
 11 12  1  0  0  0  0
 12 13  1  0  0  0  0
 13 32  1  0  0  0  0
 13 14  2  0  0  0  0
 14 15  1  0  0  0  0
 15 31  2  0  0  0  0
 15 16  1  0  0  0  0
 16 17  2  0  0  0  0
 17 18  1  0  0  0  0
 18 19  1  0  0  0  0
 19 20  1  0  0  0  0
 20 21  2  0  0  0  0
 20 22  1  0  0  0  0
 22 23  1  0  0  0  0
 23 24  1  0  0  0  0
 24 29  2  0  0  0  0
 24 25  1  0  0  0  0
 25 26  2  0  0  0  0
 26 27  1  0  0  0  0
 27 28  2  0  0  0  0
 28 29  1  0  0  0  0
 18 30  2  0  0  0  0
 30 31  1  0  0  0  0
 31 32  1  0  0  0  0
 10 33  1  0  0  0  0
 33 34  1  0  0  0  0
M  END
> <ID>
371500

$$$$
371289
  -OEChem-05171416412D

 37 40  0     0  0  0  0  0  0999 V2000
   -8.6685    3.0017    0.0000 C   0  0  0  0  0  0  0  0  0  0  0  0
   -7.8032    2.5005    0.0000 C   0  0  0  0  0  0  0  0  0  0  0  0
   -6.9364    2.9992    0.0000 C   0  0  0  0  0  0  0  0  0  0  0  0
   -6.0711    2.4980    0.0000 C   0  0  0  0  0  0  0  0  0  0  0  0
   -5.2044    2.9967    0.0000 O   0  0  0  0  0  0  0  0  0  0  0  0
   -4.3391    2.4955    0.0000 C   0  0  0  0  0  0  0  0  0  0  0  0
   -3.4693    2.9994    0.0000 C   0  0  0  0  0  0  0  0  0  0  0  0
   -2.6039    2.4981    0.0000 C   0  0  0  0  0  0  0  0  0  0  0  0
   -2.5995    1.4981    0.0000 C   0  0  0  0  0  0  0  0  0  0  0  0
   -3.4693    0.9942    0.0000 C   0  0  0  0  0  0  0  0  0  0  0  0
   -4.3435    1.4903    0.0000 C   0  0  0  0  0  0  0  0  0  0  0  0
   -1.7320    1.0007    0.0000 C   0  0  0  0  0  0  0  0  0  0  0  0
   -1.7291    0.0007    0.0000 O   0  0  0  0  0  0  0  0  0  0  0  0
   -0.8675    1.5032    0.0000 N   0  0  0  0  0  0  0  0  0  0  0  0
    0.0000    1.0058    0.0000 C   0  0  0  0  0  0  0  0  0  0  0  0
    0.0000    0.0000    0.0000 C   0  0  0  0  0  0  0  0  0  0  0  0
    0.8680   -0.4978    0.0000 C   0  0  0  0  0  0  0  0  0  0  0  0
    1.7360   -0.0012    0.0000 C   0  0  0  0  0  0  0  0  0  0  0  0
    2.6938   -0.3125    0.0000 N   0  0  0  0  0  0  0  0  0  0  0  0
    3.2858    0.5023    0.0000 C   0  0  0  0  0  0  0  0  0  0  0  0
    4.2858    0.5024    0.0000 S   0  0  0  0  0  0  0  0  0  0  0  0
    4.7857    1.3684    0.0000 C   0  0  0  0  0  0  0  0  0  0  0  0
    5.7857    1.3685    0.0000 C   0  0  0  0  0  0  0  0  0  0  0  0
    6.2858    0.4965    0.0000 C   0  0  0  0  0  0  0  0  0  0  0  0
    5.7846   -0.3688    0.0000 C   0  0  0  0  0  0  0  0  0  0  0  0
    7.2859    0.4965    0.0000 C   0  0  0  0  0  0  0  0  0  0  0  0
    7.7909    1.3596    0.0000 C   0  0  0  0  0  0  0  0  0  0  0  0
    8.7909    1.3553    0.0000 C   0  0  0  0  0  0  0  0  0  0  0  0
    7.2908    2.2316    0.0000 C   0  0  0  0  0  0  0  0  0  0  0  0
    7.7959    3.0947    0.0000 C   0  0  0  0  0  0  0  0  0  0  0  0
    8.7958    3.0889    0.0000 O   0  0  0  0  0  0  0  0  0  0  0  0
    7.3009    3.9636    0.0000 C   0  0  0  0  0  0  0  0  0  0  0  0
    6.2857    2.2405    0.0000 C   0  0  0  0  0  0  0  0  0  0  0  0
    5.7882    3.1079    0.0000 C   0  0  0  0  0  0  0  0  0  0  0  0
    2.6938    1.3169    0.0000 S   0  0  0  0  0  0  0  0  0  0  0  0
    1.7360    1.0058    0.0000 C   0  0  0  0  0  0  0  0  0  0  0  0
    0.8680    1.5138    0.0000 C   0  0  0  0  0  0  0  0  0  0  0  0
  1  2  1  0  0  0  0
  2  3  1  0  0  0  0
  3  4  1  0  0  0  0
  4  5  1  0  0  0  0
  5  6  1  0  0  0  0
  6 11  2  0  0  0  0
  6  7  1  0  0  0  0
  7  8  2  0  0  0  0
  8  9  1  0  0  0  0
  9 10  2  0  0  0  0
 10 11  1  0  0  0  0
  9 12  1  0  0  0  0
 12 13  2  0  0  0  0
 12 14  1  0  0  0  0
 14 15  1  0  0  0  0
 15 37  2  0  0  0  0
 15 16  1  0  0  0  0
 16 17  2  0  0  0  0
 17 18  1  0  0  0  0
 18 36  2  0  0  0  0
 18 19  1  0  0  0  0
 19 20  2  0  0  0  0
 20 21  1  0  0  0  0
 21 22  1  0  0  0  0
 22 23  1  0  0  0  0
 23 33  2  0  0  0  0
 23 24  1  0  0  0  0
 24 25  1  0  0  0  0
 24 26  2  0  0  0  0
 26 27  1  0  0  0  0
 27 28  1  0  0  0  0
 27 29  2  0  0  0  0
 29 30  1  0  0  0  0
 30 31  2  0  0  0  0
 30 32  1  0  0  0  0
 29 33  1  0  0  0  0
 33 34  1  0  0  0  0
 20 35  1  0  0  0  0
 35 36  1  0  0  0  0
 36 37  1  0  0  0  0
M  END
> <ID>
371289

$$$$
371358
  -OEChem-05171416412D

 30 33  0     1  0  0  0  0  0999 V2000
    8.6731   -2.0120    0.0000 C   0  0  0  0  0  0  0  0  0  0  0  0
    7.8093   -1.5081    0.0000 C   0  0  0  0  0  0  0  0  0  0  0  0
    6.9411   -2.0042    0.0000 C   0  0  3  0  0  0  0  0  0  0  0  0
    6.9366   -3.0042    0.0000 C   0  0  0  0  0  0  0  0  0  0  0  0
    6.0773   -1.5004    0.0000 C   0  0  0  0  0  0  0  0  0  0  0  0
    5.2060   -2.0016    0.0000 C   0  0  0  0  0  0  0  0  0  0  0  0
    4.3422   -1.4978    0.0000 C   0  0  0  0  0  0  0  0  0  0  0  0
    4.3408   -0.4978    0.0000 C   0  0  0  0  0  0  0  0  0  0  0  0
    5.2121    0.0035    0.0000 C   0  0  0  0  0  0  0  0  0  0  0  0
    6.0848   -0.4953    0.0000 C   0  0  0  0  0  0  0  0  0  0  0  0
    3.4748    0.0023    0.0000 N   0  0  0  0  0  0  0  0  0  0  0  0
    3.4735    1.0079    0.0000 C   0  0  3  0  0  0  0  0  0  0  0  0
    2.6012    1.5123    0.0000 N   0  0  0  0  0  0  0  0  0  0  0  0
    1.7358    1.0056    0.0000 C   0  0  0  0  0  0  0  0  0  0  0  0
    0.8679    1.5135    0.0000 C   0  0  0  0  0  0  0  0  0  0  0  0
    0.0000    1.0056    0.0000 C   0  0  0  0  0  0  0  0  0  0  0  0
    0.0000    0.0000    0.0000 C   0  0  0  0  0  0  0  0  0  0  0  0
    0.8679   -0.4977    0.0000 C   0  0  0  0  0  0  0  0  0  0  0  0
    1.7371    0.0000    0.0000 C   0  0  0  0  0  0  0  0  0  0  0  0
    2.6038   -0.4989    0.0000 C   0  0  0  0  0  0  0  0  0  0  0  0
    2.6037   -1.4989    0.0000 O   0  0  0  0  0  0  0  0  0  0  0  0
    4.3394    1.5082    0.0000 C   0  0  0  0  0  0  0  0  0  0  0  0
    4.3361    2.5134    0.0000 C   0  0  0  0  0  0  0  0  0  0  0  0
    5.2020    3.0137    0.0000 C   0  0  0  0  0  0  0  0  0  0  0  0
    6.0711    2.5190    0.0000 C   0  0  0  0  0  0  0  0  0  0  0  0
    6.0744    1.5138    0.0000 C   0  0  0  0  0  0  0  0  0  0  0  0
    5.2085    1.0033    0.0000 C   0  0  0  0  0  0  0  0  0  0  0  0
    6.9347    3.0231    0.0000 C   0  0  0  0  0  0  0  0  0  0  0  0
    6.9300    4.0231    0.0000 C   0  0  0  0  0  0  0  0  0  0  0  0
    7.8031    2.5272    0.0000 C   0  0  0  0  0  0  0  0  0  0  0  0
  1  2  1  0  0  0  0
  2  3  1  0  0  0  0
  3  4  1  0  0  0  0
  3  5  1  0  0  0  0
  5 10  2  0  0  0  0
  5  6  1  0  0  0  0
  6  7  2  0  0  0  0
  7  8  1  0  0  0  0
  8  9  2  0  0  0  0
  9 10  1  0  0  0  0
  8 11  1  0  0  0  0
 11 20  1  0  0  0  0
 11 12  1  0  0  0  0
 12 13  1  0  0  0  0
 13 14  1  0  0  0  0
 14 19  2  0  0  0  0
 14 15  1  0  0  0  0
 15 16  2  0  0  0  0
 16 17  1  0  0  0  0
 17 18  2  0  0  0  0
 18 19  1  0  0  0  0
 19 20  1  0  0  0  0
 20 21  2  0  0  0  0
 12 22  1  0  0  0  0
 22 27  2  0  0  0  0
 22 23  1  0  0  0  0
 23 24  2  0  0  0  0
 24 25  1  0  0  0  0
 25 26  2  0  0  0  0
 26 27  1  0  0  0  0
 25 28  1  0  0  0  0
 28 29  1  0  0  0  0
 28 30  1  0  0  0  0
M  END
> <ID>
371358

$$$$
371350
  -OEChem-05171416412D

 28 31  0     1  0  0  0  0  0999 V2000
    7.8157    4.5043    0.0000 C   0  0  0  0  0  0  0  0  0  0  0  0
    6.9477    4.0078    0.0000 C   0  0  0  0  0  0  0  0  0  0  0  0
    6.9436    3.0079    0.0000 C   0  0  3  0  0  0  0  0  0  0  0  0
    7.8075    2.5043    0.0000 C   0  0  0  0  0  0  0  0  0  0  0  0
    6.0755    2.5114    0.0000 C   0  0  0  0  0  0  0  0  0  0  0  0
    6.0744    1.5062    0.0000 C   0  0  0  0  0  0  0  0  0  0  0  0
    5.2063    1.0097    0.0000 C   0  0  0  0  0  0  0  0  0  0  0  0
    4.3394    1.5082    0.0000 C   0  0  0  0  0  0  0  0  0  0  0  0
    4.3405    2.5134    0.0000 C   0  0  0  0  0  0  0  0  0  0  0  0
    5.2086    3.0201    0.0000 C   0  0  0  0  0  0  0  0  0  0  0  0
    3.4735    1.0079    0.0000 C   0  0  3  0  0  0  0  0  0  0  0  0
    2.6012    1.5123    0.0000 N   0  0  0  0  0  0  0  0  0  0  0  0
    1.7358    1.0056    0.0000 C   0  0  0  0  0  0  0  0  0  0  0  0
    0.8679    1.5135    0.0000 C   0  0  0  0  0  0  0  0  0  0  0  0
    0.0000    1.0056    0.0000 C   0  0  0  0  0  0  0  0  0  0  0  0
    0.0000    0.0000    0.0000 C   0  0  0  0  0  0  0  0  0  0  0  0
    0.8679   -0.4977    0.0000 C   0  0  0  0  0  0  0  0  0  0  0  0
    1.7371    0.0000    0.0000 C   0  0  0  0  0  0  0  0  0  0  0  0
    2.6038   -0.4989    0.0000 C   0  0  0  0  0  0  0  0  0  0  0  0
    2.6037   -1.4989    0.0000 O   0  0  0  0  0  0  0  0  0  0  0  0
    3.4748    0.0023    0.0000 N   0  0  0  0  0  0  0  0  0  0  0  0
    4.3408   -0.4978    0.0000 C   0  0  0  0  0  0  0  0  0  0  0  0
    5.2099    0.0073    0.0000 C   0  0  0  0  0  0  0  0  0  0  0  0
    6.0759   -0.4927    0.0000 C   0  0  0  0  0  0  0  0  0  0  0  0
    6.0817   -1.4927    0.0000 C   0  0  0  0  0  0  0  0  0  0  0  0
    6.9499   -1.9890    0.0000 Cl  0  0  0  0  0  0  0  0  0  0  0  0
    5.2126   -1.9978    0.0000 C   0  0  0  0  0  0  0  0  0  0  0  0
    4.3377   -1.5029    0.0000 C   0  0  0  0  0  0  0  0  0  0  0  0
  1  2  1  0  0  0  0
  2  3  1  0  0  0  0
  3  4  1  0  0  0  0
  3  5  1  0  0  0  0
  5 10  2  0  0  0  0
  5  6  1  0  0  0  0
  6  7  2  0  0  0  0
  7  8  1  0  0  0  0
  8  9  2  0  0  0  0
  9 10  1  0  0  0  0
  8 11  1  0  0  0  0
 11 21  1  0  0  0  0
 11 12  1  0  0  0  0
 12 13  1  0  0  0  0
 13 18  2  0  0  0  0
 13 14  1  0  0  0  0
 14 15  2  0  0  0  0
 15 16  1  0  0  0  0
 16 17  2  0  0  0  0
 17 18  1  0  0  0  0
 18 19  1  0  0  0  0
 19 20  2  0  0  0  0
 19 21  1  0  0  0  0
 21 22  1  0  0  0  0
 22 28  2  0  0  0  0
 22 23  1  0  0  0  0
 23 24  2  0  0  0  0
 24 25  1  0  0  0  0
 25 26  1  0  0  0  0
 25 27  2  0  0  0  0
 27 28  1  0  0  0  0
M  END
> <ID>
371350

$$$$
371334
  -OEChem-05171416412D

 33 37  0     1  0  0  0  0  0999 V2000
    6.9366   -3.0042    0.0000 C   0  0  0  0  0  0  0  0  0  0  0  0
    6.9411   -2.0042    0.0000 C   0  0  0  0  0  0  0  0  0  0  0  0
    6.0773   -1.5004    0.0000 C   0  0  0  0  0  0  0  0  0  0  0  0
    5.2060   -2.0016    0.0000 C   0  0  0  0  0  0  0  0  0  0  0  0
    4.3422   -1.4978    0.0000 C   0  0  0  0  0  0  0  0  0  0  0  0
    4.3408   -0.4978    0.0000 C   0  0  0  0  0  0  0  0  0  0  0  0
    5.2121    0.0035    0.0000 C   0  0  0  0  0  0  0  0  0  0  0  0
    6.0848   -0.4953    0.0000 C   0  0  0  0  0  0  0  0  0  0  0  0
    3.4748    0.0023    0.0000 N   0  0  0  0  0  0  0  0  0  0  0  0
    3.4735    1.0079    0.0000 C   0  0  3  0  0  0  0  0  0  0  0  0
    2.6012    1.5123    0.0000 N   0  0  0  0  0  0  0  0  0  0  0  0
    1.7358    1.0056    0.0000 C   0  0  0  0  0  0  0  0  0  0  0  0
    0.8679    1.5135    0.0000 C   0  0  0  0  0  0  0  0  0  0  0  0
    0.0000    1.0056    0.0000 C   0  0  0  0  0  0  0  0  0  0  0  0
    0.0000    0.0000    0.0000 C   0  0  0  0  0  0  0  0  0  0  0  0
    0.8679   -0.4977    0.0000 C   0  0  0  0  0  0  0  0  0  0  0  0
    1.7371    0.0000    0.0000 C   0  0  0  0  0  0  0  0  0  0  0  0
    2.6038   -0.4989    0.0000 C   0  0  0  0  0  0  0  0  0  0  0  0
    2.6037   -1.4989    0.0000 O   0  0  0  0  0  0  0  0  0  0  0  0
    4.3394    1.5082    0.0000 C   0  0  0  0  0  0  0  0  0  0  0  0
    4.3361    2.5134    0.0000 C   0  0  0  0  0  0  0  0  0  0  0  0
    5.2020    3.0137    0.0000 C   0  0  0  0  0  0  0  0  0  0  0  0
    6.0711    2.5190    0.0000 C   0  0  0  0  0  0  0  0  0  0  0  0
    6.9347    3.0231    0.0000 O   0  0  0  0  0  0  0  0  0  0  0  0
    6.9300    4.0231    0.0000 C   0  0  0  0  0  0  0  0  0  0  0  0
    7.7937    4.5272    0.0000 C   0  0  0  0  0  0  0  0  0  0  0  0
    7.7860    5.5323    0.0000 C   0  0  0  0  0  0  0  0  0  0  0  0
    8.6496    6.0365    0.0000 C   0  0  0  0  0  0  0  0  0  0  0  0
    9.5209    5.5456    0.0000 C   0  0  0  0  0  0  0  0  0  0  0  0
    9.5286    4.5405    0.0000 C   0  0  0  0  0  0  0  0  0  0  0  0
    8.6650    4.0261    0.0000 C   0  0  0  0  0  0  0  0  0  0  0  0
    6.0744    1.5138    0.0000 C   0  0  0  0  0  0  0  0  0  0  0  0
    5.2085    1.0033    0.0000 C   0  0  0  0  0  0  0  0  0  0  0  0
  1  2  1  0  0  0  0
  2  3  1  0  0  0  0
  3  8  2  0  0  0  0
  3  4  1  0  0  0  0
  4  5  2  0  0  0  0
  5  6  1  0  0  0  0
  6  7  2  0  0  0  0
  7  8  1  0  0  0  0
  6  9  1  0  0  0  0
  9 18  1  0  0  0  0
  9 10  1  0  0  0  0
 10 11  1  0  0  0  0
 11 12  1  0  0  0  0
 12 17  2  0  0  0  0
 12 13  1  0  0  0  0
 13 14  2  0  0  0  0
 14 15  1  0  0  0  0
 15 16  2  0  0  0  0
 16 17  1  0  0  0  0
 17 18  1  0  0  0  0
 18 19  2  0  0  0  0
 10 20  1  0  0  0  0
 20 33  2  0  0  0  0
 20 21  1  0  0  0  0
 21 22  2  0  0  0  0
 22 23  1  0  0  0  0
 23 24  1  0  0  0  0
 24 25  1  0  0  0  0
 25 26  1  0  0  0  0
 26 31  2  0  0  0  0
 26 27  1  0  0  0  0
 27 28  2  0  0  0  0
 28 29  1  0  0  0  0
 29 30  2  0  0  0  0
 30 31  1  0  0  0  0
 23 32  2  0  0  0  0
 32 33  1  0  0  0  0
M  END
> <ID>
371334

$$$$
371326
  -OEChem-05171416412D

 30 33  0     1  0  0  0  0  0999 V2000
    6.9366   -3.0042    0.0000 C   0  0  0  0  0  0  0  0  0  0  0  0
    6.9411   -2.0042    0.0000 C   0  0  0  0  0  0  0  0  0  0  0  0
    6.0773   -1.5004    0.0000 C   0  0  0  0  0  0  0  0  0  0  0  0
    5.2060   -2.0016    0.0000 C   0  0  0  0  0  0  0  0  0  0  0  0
    4.3422   -1.4978    0.0000 C   0  0  0  0  0  0  0  0  0  0  0  0
    4.3408   -0.4978    0.0000 C   0  0  0  0  0  0  0  0  0  0  0  0
    5.2121    0.0035    0.0000 C   0  0  0  0  0  0  0  0  0  0  0  0
    6.0848   -0.4953    0.0000 C   0  0  0  0  0  0  0  0  0  0  0  0
    3.4748    0.0023    0.0000 N   0  0  0  0  0  0  0  0  0  0  0  0
    3.4735    1.0079    0.0000 C   0  0  3  0  0  0  0  0  0  0  0  0
    2.6012    1.5123    0.0000 N   0  0  0  0  0  0  0  0  0  0  0  0
    1.7358    1.0056    0.0000 C   0  0  0  0  0  0  0  0  0  0  0  0
    0.8679    1.5135    0.0000 C   0  0  0  0  0  0  0  0  0  0  0  0
    0.0000    1.0056    0.0000 C   0  0  0  0  0  0  0  0  0  0  0  0
    0.0000    0.0000    0.0000 C   0  0  0  0  0  0  0  0  0  0  0  0
    0.8679   -0.4977    0.0000 C   0  0  0  0  0  0  0  0  0  0  0  0
    1.7371    0.0000    0.0000 C   0  0  0  0  0  0  0  0  0  0  0  0
    2.6038   -0.4989    0.0000 C   0  0  0  0  0  0  0  0  0  0  0  0
    2.6037   -1.4989    0.0000 O   0  0  0  0  0  0  0  0  0  0  0  0
    4.3394    1.5082    0.0000 C   0  0  0  0  0  0  0  0  0  0  0  0
    4.3361    2.5134    0.0000 C   0  0  0  0  0  0  0  0  0  0  0  0
    5.2020    3.0137    0.0000 C   0  0  0  0  0  0  0  0  0  0  0  0
    6.0711    2.5190    0.0000 C   0  0  0  0  0  0  0  0  0  0  0  0
    6.9347    3.0231    0.0000 O   0  0  0  0  0  0  0  0  0  0  0  0
    6.9300    4.0231    0.0000 C   0  0  0  0  0  0  0  0  0  0  0  0
    7.7937    4.5272    0.0000 C   0  0  0  0  0  0  0  0  0  0  0  0
    7.7890    5.5272    0.0000 C   0  0  0  0  0  0  0  0  0  0  0  0
    8.6621    4.0313    0.0000 C   0  0  0  0  0  0  0  0  0  0  0  0
    6.0744    1.5138    0.0000 C   0  0  0  0  0  0  0  0  0  0  0  0
    5.2085    1.0033    0.0000 C   0  0  0  0  0  0  0  0  0  0  0  0
  1  2  1  0  0  0  0
  2  3  1  0  0  0  0
  3  8  2  0  0  0  0
  3  4  1  0  0  0  0
  4  5  2  0  0  0  0
  5  6  1  0  0  0  0
  6  7  2  0  0  0  0
  7  8  1  0  0  0  0
  6  9  1  0  0  0  0
  9 18  1  0  0  0  0
  9 10  1  0  0  0  0
 10 11  1  0  0  0  0
 11 12  1  0  0  0  0
 12 17  2  0  0  0  0
 12 13  1  0  0  0  0
 13 14  2  0  0  0  0
 14 15  1  0  0  0  0
 15 16  2  0  0  0  0
 16 17  1  0  0  0  0
 17 18  1  0  0  0  0
 18 19  2  0  0  0  0
 10 20  1  0  0  0  0
 20 30  2  0  0  0  0
 20 21  1  0  0  0  0
 21 22  2  0  0  0  0
 22 23  1  0  0  0  0
 23 24  1  0  0  0  0
 24 25  1  0  0  0  0
 25 26  1  0  0  0  0
 26 27  1  0  0  0  0
 26 28  1  0  0  0  0
 23 29  2  0  0  0  0
 29 30  1  0  0  0  0
M  END
> <ID>
371326

$$$$
371318
  -OEChem-05171416412D

 30 34  0     1  0  0  0  0  0999 V2000
    7.8048   -2.5081    0.0000 C   0  0  0  0  0  0  0  0  0  0  0  0
    6.9411   -2.0042    0.0000 C   0  0  0  0  0  0  0  0  0  0  0  0
    6.4372   -2.8680    0.0000 C   0  0  0  0  0  0  0  0  0  0  0  0
    7.4449   -1.1405    0.0000 C   0  0  0  0  0  0  0  0  0  0  0  0
    6.0773   -1.5004    0.0000 C   0  0  0  0  0  0  0  0  0  0  0  0
    5.2060   -2.0016    0.0000 C   0  0  0  0  0  0  0  0  0  0  0  0
    4.3422   -1.4978    0.0000 C   0  0  0  0  0  0  0  0  0  0  0  0
    4.3408   -0.4978    0.0000 C   0  0  0  0  0  0  0  0  0  0  0  0
    5.2121    0.0035    0.0000 C   0  0  0  0  0  0  0  0  0  0  0  0
    6.0848   -0.4953    0.0000 C   0  0  0  0  0  0  0  0  0  0  0  0
    3.4748    0.0023    0.0000 N   0  0  0  0  0  0  0  0  0  0  0  0
    3.4735    1.0079    0.0000 C   0  0  3  0  0  0  0  0  0  0  0  0
    2.6012    1.5123    0.0000 N   0  0  0  0  0  0  0  0  0  0  0  0
    1.7358    1.0056    0.0000 C   0  0  0  0  0  0  0  0  0  0  0  0
    0.8679    1.5135    0.0000 C   0  0  0  0  0  0  0  0  0  0  0  0
    0.0000    1.0056    0.0000 C   0  0  0  0  0  0  0  0  0  0  0  0
    0.0000    0.0000    0.0000 C   0  0  0  0  0  0  0  0  0  0  0  0
    0.8679   -0.4977    0.0000 C   0  0  0  0  0  0  0  0  0  0  0  0
    1.7371    0.0000    0.0000 C   0  0  0  0  0  0  0  0  0  0  0  0
    2.6038   -0.4989    0.0000 C   0  0  0  0  0  0  0  0  0  0  0  0
    2.6037   -1.4989    0.0000 O   0  0  0  0  0  0  0  0  0  0  0  0
    4.3394    1.5082    0.0000 C   0  0  0  0  0  0  0  0  0  0  0  0
    5.2091    1.0030    0.0000 C   0  0  0  0  0  0  0  0  0  0  0  0
    6.0756    1.5035    0.0000 C   0  0  0  0  0  0  0  0  0  0  0  0
    6.0821    2.5035    0.0000 C   0  0  0  0  0  0  0  0  0  0  0  0
    6.8324    3.1754    0.0000 O   0  0  0  0  0  0  0  0  0  0  0  0
    6.4251    4.0965    0.0000 C   0  0  0  0  0  0  0  0  0  0  0  0
    5.4234    3.9938    0.0000 O   0  0  0  0  0  0  0  0  0  0  0  0
    5.2113    3.0093    0.0000 C   0  0  0  0  0  0  0  0  0  0  0  0
    4.3361    2.5138    0.0000 C   0  0  0  0  0  0  0  0  0  0  0  0
  1  2  1  0  0  0  0
  2  3  1  0  0  0  0
  2  4  1  0  0  0  0
  2  5  1  0  0  0  0
  5 10  2  0  0  0  0
  5  6  1  0  0  0  0
  6  7  2  0  0  0  0
  7  8  1  0  0  0  0
  8  9  2  0  0  0  0
  9 10  1  0  0  0  0
  8 11  1  0  0  0  0
 11 20  1  0  0  0  0
 11 12  1  0  0  0  0
 12 13  1  0  0  0  0
 13 14  1  0  0  0  0
 14 19  2  0  0  0  0
 14 15  1  0  0  0  0
 15 16  2  0  0  0  0
 16 17  1  0  0  0  0
 17 18  2  0  0  0  0
 18 19  1  0  0  0  0
 19 20  1  0  0  0  0
 20 21  2  0  0  0  0
 12 22  1  0  0  0  0
 22 30  2  0  0  0  0
 22 23  1  0  0  0  0
 23 24  2  0  0  0  0
 24 25  1  0  0  0  0
 25 29  2  0  0  0  0
 25 26  1  0  0  0  0
 26 27  1  0  0  0  0
 27 28  1  0  0  0  0
 28 29  1  0  0  0  0
 29 30  1  0  0  0  0
M  END
> <ID>
371318

$$$$
371305
  -OEChem-05171416412D

 32 36  0     1  0  0  0  0  0999 V2000
    7.8075    2.5043    0.0000 C   0  0  0  0  0  0  0  0  0  0  0  0
    6.9436    3.0079    0.0000 O   0  0  0  0  0  0  0  0  0  0  0  0
    6.0755    2.5114    0.0000 C   0  0  0  0  0  0  0  0  0  0  0  0
    6.0744    1.5062    0.0000 C   0  0  0  0  0  0  0  0  0  0  0  0
    5.2063    1.0097    0.0000 C   0  0  0  0  0  0  0  0  0  0  0  0
    4.3394    1.5082    0.0000 C   0  0  0  0  0  0  0  0  0  0  0  0
    4.3405    2.5134    0.0000 C   0  0  0  0  0  0  0  0  0  0  0  0
    5.2086    3.0201    0.0000 C   0  0  0  0  0  0  0  0  0  0  0  0
    3.4735    1.0079    0.0000 C   0  0  3  0  0  0  0  0  0  0  0  0
    2.6012    1.5123    0.0000 N   0  0  0  0  0  0  0  0  0  0  0  0
    1.7358    1.0056    0.0000 C   0  0  0  0  0  0  0  0  0  0  0  0
    0.8679    1.5135    0.0000 C   0  0  0  0  0  0  0  0  0  0  0  0
    0.0000    1.0056    0.0000 C   0  0  0  0  0  0  0  0  0  0  0  0
    0.0000    0.0000    0.0000 C   0  0  0  0  0  0  0  0  0  0  0  0
    0.8679   -0.4977    0.0000 C   0  0  0  0  0  0  0  0  0  0  0  0
    1.7371    0.0000    0.0000 C   0  0  0  0  0  0  0  0  0  0  0  0
    2.6038   -0.4989    0.0000 C   0  0  0  0  0  0  0  0  0  0  0  0
    2.6037   -1.4989    0.0000 O   0  0  0  0  0  0  0  0  0  0  0  0
    3.4748    0.0023    0.0000 N   0  0  0  0  0  0  0  0  0  0  0  0
    4.3408   -0.4978    0.0000 C   0  0  0  0  0  0  0  0  0  0  0  0
    5.2099    0.0073    0.0000 C   0  0  0  0  0  0  0  0  0  0  0  0
    6.0759   -0.4927    0.0000 C   0  0  0  0  0  0  0  0  0  0  0  0
    6.0817   -1.4927    0.0000 C   0  0  0  0  0  0  0  0  0  0  0  0
    6.9499   -1.9890    0.0000 O   0  0  0  0  0  0  0  0  0  0  0  0
    7.8137   -1.4852    0.0000 C   0  0  0  0  0  0  0  0  0  0  0  0
    7.8064   -0.4800    0.0000 C   0  0  0  0  0  0  0  0  0  0  0  0
    8.6703    0.0238    0.0000 C   0  0  0  0  0  0  0  0  0  0  0  0
    9.5414   -0.4674    0.0000 C   0  0  0  0  0  0  0  0  0  0  0  0
    9.5487   -1.4726    0.0000 C   0  0  0  0  0  0  0  0  0  0  0  0
    8.6849   -1.9866    0.0000 C   0  0  0  0  0  0  0  0  0  0  0  0
    5.2126   -1.9978    0.0000 C   0  0  0  0  0  0  0  0  0  0  0  0
    4.3377   -1.5029    0.0000 C   0  0  0  0  0  0  0  0  0  0  0  0
  1  2  1  0  0  0  0
  2  3  1  0  0  0  0
  3  8  2  0  0  0  0
  3  4  1  0  0  0  0
  4  5  2  0  0  0  0
  5  6  1  0  0  0  0
  6  7  2  0  0  0  0
  7  8  1  0  0  0  0
  6  9  1  0  0  0  0
  9 19  1  0  0  0  0
  9 10  1  0  0  0  0
 10 11  1  0  0  0  0
 11 16  2  0  0  0  0
 11 12  1  0  0  0  0
 12 13  2  0  0  0  0
 13 14  1  0  0  0  0
 14 15  2  0  0  0  0
 15 16  1  0  0  0  0
 16 17  1  0  0  0  0
 17 18  2  0  0  0  0
 17 19  1  0  0  0  0
 19 20  1  0  0  0  0
 20 32  2  0  0  0  0
 20 21  1  0  0  0  0
 21 22  2  0  0  0  0
 22 23  1  0  0  0  0
 23 24  1  0  0  0  0
 24 25  1  0  0  0  0
 25 30  2  0  0  0  0
 25 26  1  0  0  0  0
 26 27  2  0  0  0  0
 27 28  1  0  0  0  0
 28 29  2  0  0  0  0
 29 30  1  0  0  0  0
 23 31  2  0  0  0  0
 31 32  1  0  0  0  0
M  END
> <ID>
371305

$$$$
371282
  -OEChem-05171416412D

 29 32  0     1  0  0  0  0  0999 V2000
    8.6731   -2.0120    0.0000 C   0  0  0  0  0  0  0  0  0  0  0  0
    7.8093   -1.5081    0.0000 C   0  0  0  0  0  0  0  0  0  0  0  0
    6.9411   -2.0042    0.0000 O   0  0  0  0  0  0  0  0  0  0  0  0
    6.0773   -1.5004    0.0000 C   0  0  0  0  0  0  0  0  0  0  0  0
    5.2060   -2.0016    0.0000 C   0  0  0  0  0  0  0  0  0  0  0  0
    4.3422   -1.4978    0.0000 C   0  0  0  0  0  0  0  0  0  0  0  0
    4.3408   -0.4978    0.0000 C   0  0  0  0  0  0  0  0  0  0  0  0
    5.2121    0.0035    0.0000 C   0  0  0  0  0  0  0  0  0  0  0  0
    6.0848   -0.4953    0.0000 C   0  0  0  0  0  0  0  0  0  0  0  0
    3.4748    0.0023    0.0000 N   0  0  0  0  0  0  0  0  0  0  0  0
    3.4735    1.0079    0.0000 C   0  0  3  0  0  0  0  0  0  0  0  0
    2.6012    1.5123    0.0000 N   0  0  0  0  0  0  0  0  0  0  0  0
    1.7358    1.0056    0.0000 C   0  0  0  0  0  0  0  0  0  0  0  0
    0.8679    1.5135    0.0000 C   0  0  0  0  0  0  0  0  0  0  0  0
    0.0000    1.0056    0.0000 C   0  0  0  0  0  0  0  0  0  0  0  0
    0.0000    0.0000    0.0000 C   0  0  0  0  0  0  0  0  0  0  0  0
    0.8679   -0.4977    0.0000 C   0  0  0  0  0  0  0  0  0  0  0  0
    1.7371    0.0000    0.0000 C   0  0  0  0  0  0  0  0  0  0  0  0
    2.6038   -0.4989    0.0000 C   0  0  0  0  0  0  0  0  0  0  0  0
    2.6037   -1.4989    0.0000 O   0  0  0  0  0  0  0  0  0  0  0  0
    4.3394    1.5082    0.0000 C   0  0  0  0  0  0  0  0  0  0  0  0
    4.3361    2.5134    0.0000 C   0  0  0  0  0  0  0  0  0  0  0  0
    5.2020    3.0137    0.0000 C   0  0  0  0  0  0  0  0  0  0  0  0
    6.0711    2.5190    0.0000 C   0  0  0  0  0  0  0  0  0  0  0  0
    6.0744    1.5138    0.0000 C   0  0  0  0  0  0  0  0  0  0  0  0
    5.2085    1.0033    0.0000 C   0  0  0  0  0  0  0  0  0  0  0  0
    6.9347    3.0231    0.0000 N   0  0  0  0  0  0  0  0  0  0  0  0
    6.9300    4.0231    0.0000 C   0  0  0  0  0  0  0  0  0  0  0  0
    7.8031    2.5272    0.0000 C   0  0  0  0  0  0  0  0  0  0  0  0
  1  2  1  0  0  0  0
  2  3  1  0  0  0  0
  3  4  1  0  0  0  0
  4  9  2  0  0  0  0
  4  5  1  0  0  0  0
  5  6  2  0  0  0  0
  6  7  1  0  0  0  0
  7  8  2  0  0  0  0
  8  9  1  0  0  0  0
  7 10  1  0  0  0  0
 10 19  1  0  0  0  0
 10 11  1  0  0  0  0
 11 12  1  0  0  0  0
 12 13  1  0  0  0  0
 13 18  2  0  0  0  0
 13 14  1  0  0  0  0
 14 15  2  0  0  0  0
 15 16  1  0  0  0  0
 16 17  2  0  0  0  0
 17 18  1  0  0  0  0
 18 19  1  0  0  0  0
 19 20  2  0  0  0  0
 11 21  1  0  0  0  0
 21 26  2  0  0  0  0
 21 22  1  0  0  0  0
 22 23  2  0  0  0  0
 23 24  1  0  0  0  0
 24 25  2  0  0  0  0
 25 26  1  0  0  0  0
 24 27  1  0  0  0  0
 27 28  1  0  0  0  0
 27 29  1  0  0  0  0
M  END
> <ID>
371282

$$$$
371270
  -OEChem-05171416412D

 29 32  0     1  0  0  0  0  0999 V2000
    7.8075    2.5043    0.0000 C   0  0  0  0  0  0  0  0  0  0  0  0
    6.9436    3.0079    0.0000 O   0  0  0  0  0  0  0  0  0  0  0  0
    6.0755    2.5114    0.0000 C   0  0  0  0  0  0  0  0  0  0  0  0
    6.0744    1.5062    0.0000 C   0  0  0  0  0  0  0  0  0  0  0  0
    5.2063    1.0097    0.0000 C   0  0  0  0  0  0  0  0  0  0  0  0
    4.3394    1.5082    0.0000 C   0  0  0  0  0  0  0  0  0  0  0  0
    4.3405    2.5134    0.0000 C   0  0  0  0  0  0  0  0  0  0  0  0
    5.2086    3.0201    0.0000 C   0  0  0  0  0  0  0  0  0  0  0  0
    3.4735    1.0079    0.0000 C   0  0  3  0  0  0  0  0  0  0  0  0
    2.6012    1.5123    0.0000 N   0  0  0  0  0  0  0  0  0  0  0  0
    1.7358    1.0056    0.0000 C   0  0  0  0  0  0  0  0  0  0  0  0
    0.8679    1.5135    0.0000 C   0  0  0  0  0  0  0  0  0  0  0  0
    0.0000    1.0056    0.0000 C   0  0  0  0  0  0  0  0  0  0  0  0
    0.0000    0.0000    0.0000 C   0  0  0  0  0  0  0  0  0  0  0  0
    0.8679   -0.4977    0.0000 C   0  0  0  0  0  0  0  0  0  0  0  0
    1.7371    0.0000    0.0000 C   0  0  0  0  0  0  0  0  0  0  0  0
    2.6038   -0.4989    0.0000 C   0  0  0  0  0  0  0  0  0  0  0  0
    2.6037   -1.4989    0.0000 O   0  0  0  0  0  0  0  0  0  0  0  0
    3.4748    0.0023    0.0000 N   0  0  0  0  0  0  0  0  0  0  0  0
    4.3408   -0.4978    0.0000 C   0  0  0  0  0  0  0  0  0  0  0  0
    5.2099    0.0073    0.0000 C   0  0  0  0  0  0  0  0  0  0  0  0
    6.0759   -0.4927    0.0000 C   0  0  0  0  0  0  0  0  0  0  0  0
    6.0817   -1.4927    0.0000 C   0  0  0  0  0  0  0  0  0  0  0  0
    6.9499   -1.9890    0.0000 N   0  0  0  0  0  0  0  0  0  0  0  0
    7.8137   -1.4852    0.0000 C   0  0  0  0  0  0  0  0  0  0  0  0
    7.8094   -0.4852    0.0000 O   0  0  0  0  0  0  0  0  0  0  0  0
    8.6819   -1.9815    0.0000 C   0  0  0  0  0  0  0  0  0  0  0  0
    5.2126   -1.9978    0.0000 C   0  0  0  0  0  0  0  0  0  0  0  0
    4.3377   -1.5029    0.0000 C   0  0  0  0  0  0  0  0  0  0  0  0
  1  2  1  0  0  0  0
  2  3  1  0  0  0  0
  3  8  2  0  0  0  0
  3  4  1  0  0  0  0
  4  5  2  0  0  0  0
  5  6  1  0  0  0  0
  6  7  2  0  0  0  0
  7  8  1  0  0  0  0
  6  9  1  0  0  0  0
  9 19  1  0  0  0  0
  9 10  1  0  0  0  0
 10 11  1  0  0  0  0
 11 16  2  0  0  0  0
 11 12  1  0  0  0  0
 12 13  2  0  0  0  0
 13 14  1  0  0  0  0
 14 15  2  0  0  0  0
 15 16  1  0  0  0  0
 16 17  1  0  0  0  0
 17 18  2  0  0  0  0
 17 19  1  0  0  0  0
 19 20  1  0  0  0  0
 20 29  2  0  0  0  0
 20 21  1  0  0  0  0
 21 22  2  0  0  0  0
 22 23  1  0  0  0  0
 23 24  1  0  0  0  0
 24 25  1  0  0  0  0
 25 26  2  0  0  0  0
 25 27  1  0  0  0  0
 23 28  2  0  0  0  0
 28 29  1  0  0  0  0
M  END
> <ID>
371270

$$$$
371269
  -OEChem-05171416412D

 23 24  0     0  0  0  0  0  0999 V2000
   -4.3391    1.4973    0.0000 C   0  0  0  0  0  0  0  0  0  0  0  0
   -3.4723    1.9960    0.0000 N   0  0  0  0  0  0  0  0  0  0  0  0
   -3.4709    2.9960    0.0000 C   0  0  0  0  0  0  0  0  0  0  0  0
   -2.6070    1.4948    0.0000 C   0  0  0  0  0  0  0  0  0  0  0  0
   -1.7372    1.9987    0.0000 C   0  0  0  0  0  0  0  0  0  0  0  0
   -0.8719    1.4975    0.0000 C   0  0  0  0  0  0  0  0  0  0  0  0
   -0.8675    0.4974    0.0000 C   0  0  0  0  0  0  0  0  0  0  0  0
   -1.7373   -0.0065    0.0000 C   0  0  0  0  0  0  0  0  0  0  0  0
   -2.6114    0.4897    0.0000 C   0  0  0  0  0  0  0  0  0  0  0  0
    0.0000    0.0000    0.0000 C   0  0  0  0  0  0  0  0  0  0  0  0
   -0.0000   -1.0052    0.0000 N   0  0  0  0  0  0  0  0  0  0  0  0
    0.8675   -1.5027    0.0000 C   0  0  0  0  0  0  0  0  0  0  0  0
    1.7350   -1.0052    0.0000 N   0  0  0  0  0  0  0  0  0  0  0  0
    1.7350   -0.0000    0.0000 C   0  0  0  0  0  0  0  0  0  0  0  0
    0.8675    0.5077    0.0000 N   0  0  0  0  0  0  0  0  0  0  0  0
    2.6025    0.4974    0.0000 C   0  0  0  0  0  0  0  0  0  0  0  0
    2.1051    1.3649    0.0000 F   0  0  0  0  0  0  0  0  0  0  0  0
    3.0999   -0.3701    0.0000 F   0  0  0  0  0  0  0  0  0  0  0  0
    3.4700    0.9949    0.0000 F   0  0  0  0  0  0  0  0  0  0  0  0
    0.8675   -2.5027    0.0000 C   0  0  0  0  0  0  0  0  0  0  0  0
    1.8675   -2.5027    0.0000 F   0  0  0  0  0  0  0  0  0  0  0  0
   -0.1325   -2.5027    0.0000 F   0  0  0  0  0  0  0  0  0  0  0  0
    0.8675   -3.5027    0.0000 F   0  0  0  0  0  0  0  0  0  0  0  0
  1  2  1  0  0  0  0
  2  3  1  0  0  0  0
  2  4  1  0  0  0  0
  4  9  2  0  0  0  0
  4  5  1  0  0  0  0
  5  6  2  0  0  0  0
  6  7  1  0  0  0  0
  7  8  2  0  0  0  0
  8  9  1  0  0  0  0
  7 10  1  0  0  0  0
 10 15  2  0  0  0  0
 10 11  1  0  0  0  0
 11 12  2  0  0  0  0
 12 13  1  0  0  0  0
 13 14  2  0  0  0  0
 14 15  1  0  0  0  0
 14 16  1  0  0  0  0
 16 17  1  0  0  0  0
 16 18  1  0  0  0  0
 16 19  1  0  0  0  0
 12 20  1  0  0  0  0
 20 21  1  0  0  0  0
 20 22  1  0  0  0  0
 20 23  1  0  0  0  0
M  END
> <ID>
371269

$$$$
371382
  -OEChem-05171416412D

 15 15  0     0  0  0  0  0  0999 V2000
    4.3463    6.4925    0.0000 C   0  0  0  0  0  0  0  0  0  0  0  0
    3.4788    5.9950    0.0000 C   0  0  0  0  0  0  0  0  0  0  0  0
    3.4759    4.9950    0.0000 O   0  0  0  0  0  0  0  0  0  0  0  0
    2.6084    4.4976    0.0000 C   0  0  0  0  0  0  0  0  0  0  0  0
    2.6054    3.4976    0.0000 C   0  0  0  0  0  0  0  0  0  0  0  0
    1.7379    3.0001    0.0000 O   0  0  0  0  0  0  0  0  0  0  0  0
    1.7350    2.0001    0.0000 C   0  0  0  0  0  0  0  0  0  0  0  0
    2.5995    1.4976    0.0000 O   0  0  0  0  0  0  0  0  0  0  0  0
    0.8675    1.5027    0.0000 C   0  0  0  0  0  0  0  0  0  0  0  0
    0.8675    0.4975    0.0000 C   0  0  0  0  0  0  0  0  0  0  0  0
    0.0000    0.0000    0.0000 C   0  0  0  0  0  0  0  0  0  0  0  0
   -0.8675    0.4975    0.0000 C   0  0  0  0  0  0  0  0  0  0  0  0
   -1.7328   -0.0038    0.0000 N   0  0  0  0  0  0  0  0  0  0  0  0
   -0.8675    1.5027    0.0000 C   0  0  0  0  0  0  0  0  0  0  0  0
    0.0000    2.0104    0.0000 C   0  0  0  0  0  0  0  0  0  0  0  0
  1  2  1  0  0  0  0
  2  3  1  0  0  0  0
  3  4  1  0  0  0  0
  4  5  1  0  0  0  0
  5  6  1  0  0  0  0
  6  7  1  0  0  0  0
  7  8  2  0  0  0  0
  7  9  1  0  0  0  0
  9 15  2  0  0  0  0
  9 10  1  0  0  0  0
 10 11  2  0  0  0  0
 11 12  1  0  0  0  0
 12 13  1  0  0  0  0
 12 14  2  0  0  0  0
 14 15  1  0  0  0  0
M  END
> <ID>
371382

$$$$
371381
  -OEChem-05171416412D

 22 23  0     0  0  0  0  0  0999 V2000
    4.0312    5.1557    0.0000 F   0  0  0  0  0  0  0  0  0  0  0  0
    4.0400    6.1556    0.0000 C   0  0  0  0  0  0  0  0  0  0  0  0
    4.9163    6.6480    0.0000 C   0  0  0  0  0  0  0  0  0  0  0  0
    4.9251    7.6480    0.0000 C   0  0  0  0  0  0  0  0  0  0  0  0
    4.0665    8.1606    0.0000 C   0  0  0  0  0  0  0  0  0  0  0  0
    3.1901    7.6682    0.0000 C   0  0  0  0  0  0  0  0  0  0  0  0
    2.3315    8.1809    0.0000 Cl  0  0  0  0  0  0  0  0  0  0  0  0
    3.1724    6.6633    0.0000 C   0  0  0  0  0  0  0  0  0  0  0  0
    2.3006    6.1734    0.0000 C   0  0  0  0  0  0  0  0  0  0  0  0
    2.2889    5.1735    0.0000 N   0  0  0  0  0  0  0  0  0  0  0  0
    1.4170    4.6837    0.0000 N   0  0  0  0  0  0  0  0  0  0  0  0
    1.4053    3.6838    0.0000 C   0  0  0  0  0  0  0  0  0  0  0  0
    2.2654    3.1736    0.0000 O   0  0  0  0  0  0  0  0  0  0  0  0
    0.5335    3.1939    0.0000 C   0  0  0  0  0  0  0  0  0  0  0  0
   -0.3266    3.7040    0.0000 O   0  0  0  0  0  0  0  0  0  0  0  0
    0.5218    2.1940    0.0000 N   0  0  0  0  0  0  0  0  0  0  0  0
   -0.3849    1.7722    0.0000 C   0  0  0  0  0  0  0  0  0  0  0  0
   -0.6197    0.7929    0.0000 C   0  0  0  0  0  0  0  0  0  0  0  0
    0.0000    0.0000    0.0000 C   0  0  0  0  0  0  0  0  0  0  0  0
    1.0058   -0.0072    0.0000 C   0  0  0  0  0  0  0  0  0  0  0  0
    1.6419    0.7688    0.0000 C   0  0  0  0  0  0  0  0  0  0  0  0
    1.4246    1.7480    0.0000 C   0  0  0  0  0  0  0  0  0  0  0  0
  1  2  1  0  0  0  0
  2  8  2  0  0  0  0
  2  3  1  0  0  0  0
  3  4  2  0  0  0  0
  4  5  1  0  0  0  0
  5  6  2  0  0  0  0
  6  7  1  0  0  0  0
  6  8  1  0  0  0  0
  8  9  1  0  0  0  0
  9 10  2  0  0  0  0
 10 11  1  0  0  0  0
 11 12  1  0  0  0  0
 12 13  2  0  0  0  0
 12 14  1  0  0  0  0
 14 15  2  0  0  0  0
 14 16  1  0  0  0  0
 16 22  1  0  0  0  0
 16 17  1  0  0  0  0
 17 18  1  0  0  0  0
 18 19  1  0  0  0  0
 19 20  1  0  0  0  0
 20 21  1  0  0  0  0
 21 22  1  0  0  0  0
M  END
> <ID>
371381

$$$$
371380
  -OEChem-05171416412D

 21 21  0     0  0  0  0  0  0999 V2000
   -1.7379    3.0001    0.0000 C   0  0  0  0  0  0  0  0  0  0  0  0
   -1.7350    2.0001    0.0000 O   0  0  0  0  0  0  0  0  0  0  0  0
   -0.8675    1.5027    0.0000 C   0  0  0  0  0  0  0  0  0  0  0  0
   -0.8675    0.4975    0.0000 C   0  0  0  0  0  0  0  0  0  0  0  0
    0.0000    0.0000    0.0000 C   0  0  0  0  0  0  0  0  0  0  0  0
    0.8675    0.4975    0.0000 C   0  0  0  0  0  0  0  0  0  0  0  0
    0.8675    1.5027    0.0000 C   0  0  0  0  0  0  0  0  0  0  0  0
    1.7350    2.0001    0.0000 C   0  0  0  0  0  0  0  0  0  0  0  0
    1.7379    3.0001    0.0000 N   0  0  0  0  0  0  0  0  0  0  0  0
    2.6054    3.4976    0.0000 N   0  0  0  0  0  0  0  0  0  0  0  0
    2.6084    4.4976    0.0000 C   0  0  0  0  0  0  0  0  0  0  0  0
    1.7438    5.0001    0.0000 O   0  0  0  0  0  0  0  0  0  0  0  0
    3.4759    4.9950    0.0000 C   0  0  0  0  0  0  0  0  0  0  0  0
    4.3404    4.4925    0.0000 O   0  0  0  0  0  0  0  0  0  0  0  0
    3.4788    5.9950    0.0000 N   0  0  0  0  0  0  0  0  0  0  0  0
    4.3463    6.4925    0.0000 C   0  0  0  0  0  0  0  0  0  0  0  0
    3.8489    7.3600    0.0000 C   0  0  0  0  0  0  0  0  0  0  0  0
    4.8438    5.6250    0.0000 C   0  0  0  0  0  0  0  0  0  0  0  0
    5.2138    6.9899    0.0000 C   0  0  0  0  0  0  0  0  0  0  0  0
   -0.0000    2.0104    0.0000 C   0  0  0  0  0  0  0  0  0  0  0  0
   -0.0000    3.0104    0.0000 O   0  0  0  0  0  0  0  0  0  0  0  0
  1  2  1  0  0  0  0
  2  3  1  0  0  0  0
  3 20  2  0  0  0  0
  3  4  1  0  0  0  0
  4  5  2  0  0  0  0
  5  6  1  0  0  0  0
  6  7  2  0  0  0  0
  7  8  1  0  0  0  0
  8  9  2  0  0  0  0
  9 10  1  0  0  0  0
 10 11  1  0  0  0  0
 11 12  2  0  0  0  0
 11 13  1  0  0  0  0
 13 14  2  0  0  0  0
 13 15  1  0  0  0  0
 15 16  1  0  0  0  0
 16 17  1  0  0  0  0
 16 18  1  0  0  0  0
 16 19  1  0  0  0  0
  7 20  1  0  0  0  0
 20 21  1  0  0  0  0
M  END
> <ID>
371380

$$$$
371373
  -OEChem-05171416412D

 22 22  0     0  0  0  0  0  0999 V2000
   -5.2005    0.9950    0.0000 C   0  0  0  0  0  0  0  0  0  0  0  0
   -5.1991   -0.0050    0.0000 C   0  0  0  0  0  0  0  0  0  0  0  0
   -4.3323   -0.5038    0.0000 O   0  0  0  0  0  0  0  0  0  0  0  0
   -4.3309   -1.5038    0.0000 C   0  0  0  0  0  0  0  0  0  0  0  0
   -5.1962   -2.0050    0.0000 O   0  0  0  0  0  0  0  0  0  0  0  0
   -3.4641   -2.0025    0.0000 C   0  0  0  0  0  0  0  0  0  0  0  0
   -2.5988   -1.5013    0.0000 N   0  0  0  0  0  0  0  0  0  0  0  0
   -2.6003   -0.5013    0.0000 N   0  0  0  0  0  0  0  0  0  0  0  0
   -1.7350   -0.0000    0.0000 C   0  0  0  0  0  0  0  0  0  0  0  0
   -0.8675   -0.4975    0.0000 C   0  0  0  0  0  0  0  0  0  0  0  0
   -0.8675   -1.4975    0.0000 Cl  0  0  0  0  0  0  0  0  0  0  0  0
    0.0000    0.0000    0.0000 C   0  0  0  0  0  0  0  0  0  0  0  0
   -0.0000    1.0052    0.0000 C   0  0  0  0  0  0  0  0  0  0  0  0
    0.8675    1.5026    0.0000 Cl  0  0  0  0  0  0  0  0  0  0  0  0
   -0.8675    1.5129    0.0000 C   0  0  0  0  0  0  0  0  0  0  0  0
   -1.7350    1.0052    0.0000 C   0  0  0  0  0  0  0  0  0  0  0  0
   -2.6025    1.5026    0.0000 Cl  0  0  0  0  0  0  0  0  0  0  0  0
   -3.4627   -3.0025    0.0000 C   0  0  0  0  0  0  0  0  0  0  0  0
   -4.3280   -3.5038    0.0000 O   0  0  0  0  0  0  0  0  0  0  0  0
   -2.5959   -3.5013    0.0000 O   0  0  0  0  0  0  0  0  0  0  0  0
   -2.5945   -4.5013    0.0000 C   0  0  0  0  0  0  0  0  0  0  0  0
   -1.7277   -5.0000    0.0000 C   0  0  0  0  0  0  0  0  0  0  0  0
  1  2  1  0  0  0  0
  2  3  1  0  0  0  0
  3  4  1  0  0  0  0
  4  5  2  0  0  0  0
  4  6  1  0  0  0  0
  6  7  2  0  0  0  0
  7  8  1  0  0  0  0
  8  9  1  0  0  0  0
  9 16  2  0  0  0  0
  9 10  1  0  0  0  0
 10 11  1  0  0  0  0
 10 12  2  0  0  0  0
 12 13  1  0  0  0  0
 13 14  1  0  0  0  0
 13 15  2  0  0  0  0
 15 16  1  0  0  0  0
 16 17  1  0  0  0  0
  6 18  1  0  0  0  0
 18 19  2  0  0  0  0
 18 20  1  0  0  0  0
 20 21  1  0  0  0  0
 21 22  1  0  0  0  0
M  END
> <ID>
371373

$$$$
371371
  -OEChem-05171416412D

 15 15  0     1  0  0  0  0  0999 V2000
   -3.4670   -0.0025    0.0000 C   0  0  0  0  0  0  0  0  0  0  0  0
   -2.6003   -0.5013    0.0000 O   0  0  0  0  0  0  0  0  0  0  0  0
   -1.7350   -0.0000    0.0000 C   0  0  0  0  0  0  0  0  0  0  0  0
   -0.8675   -0.4975    0.0000 C   0  0  0  0  0  0  0  0  0  0  0  0
    0.0000    0.0000    0.0000 C   0  0  0  0  0  0  0  0  0  0  0  0
   -0.0000    1.0052    0.0000 C   0  0  0  0  0  0  0  0  0  0  0  0
    0.8675    1.5026    0.0000 C   0  0  0  0  0  0  0  0  0  0  0  0
    0.8704    2.5026    0.0000 C   0  0  3  0  0  0  0  0  0  0  0  0
    0.0059    3.0052    0.0000 O   0  0  0  0  0  0  0  0  0  0  0  0
    1.7379    3.0001    0.0000 C   0  0  0  0  0  0  0  0  0  0  0  0
    1.7409    4.0001    0.0000 O   0  0  0  0  0  0  0  0  0  0  0  0
   -0.8675    1.5129    0.0000 C   0  0  0  0  0  0  0  0  0  0  0  0
   -1.7350    1.0052    0.0000 C   0  0  0  0  0  0  0  0  0  0  0  0
   -2.6025    1.5026    0.0000 O   0  0  0  0  0  0  0  0  0  0  0  0
   -3.4670    1.0001    0.0000 C   0  0  0  0  0  0  0  0  0  0  0  0
  1  2  1  0  0  0  0
  2  3  1  0  0  0  0
  3 13  2  0  0  0  0
  3  4  1  0  0  0  0
  4  5  2  0  0  0  0
  5  6  1  0  0  0  0
  6  7  1  0  0  0  0
  7  8  1  0  0  0  0
  8  9  1  0  0  0  0
  8 10  1  0  0  0  0
 10 11  1  0  0  0  0
  6 12  2  0  0  0  0
 12 13  1  0  0  0  0
 13 14  1  0  0  0  0
 14 15  1  0  0  0  0
M  END
> <ID>
371371

$$$$
371355
  -OEChem-05171416412D

 22 24  0     0  0  0  0  0  0999 V2000
    4.3143    2.2289    0.0000 C   0  0  0  0  0  0  0  0  0  0  0  0
    3.3199    2.3345    0.0000 C   0  0  0  0  0  0  0  0  0  0  0  0
    2.8235    3.2026    0.0000 C   0  0  0  0  0  0  0  0  0  0  0  0
    1.8436    2.9959    0.0000 C   0  0  0  0  0  0  0  0  0  0  0  0
    1.1023    3.6671    0.0000 C   0  0  0  0  0  0  0  0  0  0  0  0
    1.7350    2.0001    0.0000 N   0  0  0  0  0  0  0  0  0  0  0  0
    2.6520    1.5897    0.0000 N   0  0  0  0  0  0  0  0  0  0  0  0
    0.8675    1.5027    0.0000 C   0  0  0  0  0  0  0  0  0  0  0  0
    0.8675    0.4975    0.0000 N   0  0  0  0  0  0  0  0  0  0  0  0
    0.0000    0.0000    0.0000 N   0  0  0  0  0  0  0  0  0  0  0  0
   -0.8675    0.4975    0.0000 C   0  0  0  0  0  0  0  0  0  0  0  0
   -1.7328   -0.0038    0.0000 N   0  0  0  0  0  0  0  0  0  0  0  0
   -1.7313   -1.0038    0.0000 N   0  0  0  0  0  0  0  0  0  0  0  0
   -2.5966   -1.5050    0.0000 C   0  0  0  0  0  0  0  0  0  0  0  0
   -3.4634   -1.0063    0.0000 C   0  0  0  0  0  0  0  0  0  0  0  0
   -3.4663   -0.0062    0.0000 C   0  0  0  0  0  0  0  0  0  0  0  0
   -4.3309    0.4963    0.0000 C   0  0  0  0  0  0  0  0  0  0  0  0
   -5.2014   -0.0063    0.0000 C   0  0  0  0  0  0  0  0  0  0  0  0
   -5.2074   -1.0114    0.0000 N   0  0  0  0  0  0  0  0  0  0  0  0
   -4.3339   -1.5089    0.0000 C   0  0  0  0  0  0  0  0  0  0  0  0
   -0.8675    1.5027    0.0000 N   0  0  0  0  0  0  0  0  0  0  0  0
    0.0000    2.0104    0.0000 N   0  0  0  0  0  0  0  0  0  0  0  0
  1  2  1  0  0  0  0
  2  7  2  0  0  0  0
  2  3  1  0  0  0  0
  3  4  2  0  0  0  0
  4  5  1  0  0  0  0
  4  6  1  0  0  0  0
  6  7  1  0  0  0  0
  6  8  1  0  0  0  0
  8 22  2  0  0  0  0
  8  9  1  0  0  0  0
  9 10  2  0  0  0  0
 10 11  1  0  0  0  0
 11 12  1  0  0  0  0
 12 13  1  0  0  0  0
 13 14  2  0  0  0  0
 14 15  1  0  0  0  0
 15 20  2  0  0  0  0
 15 16  1  0  0  0  0
 16 17  2  0  0  0  0
 17 18  1  0  0  0  0
 18 19  2  0  0  0  0
 19 20  1  0  0  0  0
 11 21  2  0  0  0  0
 21 22  1  0  0  0  0
M  END
> <ID>
371355

$$$$
371340
  -OEChem-05171416412D

 19 20  0     0  0  0  0  0  0999 V2000
    2.2648    1.2596    0.0000 C   0  0  0  0  0  0  0  0  0  0  0  0
    1.3133    0.9519    0.0000 N   0  0  0  0  0  0  0  0  0  0  0  0
    1.0015    0.0000    0.0000 C   0  0  0  0  0  0  0  0  0  0  0  0
    0.0000    0.0000    0.0000 C   0  0  0  0  0  0  0  0  0  0  0  0
   -0.5889   -0.8082    0.0000 I   0  0  0  0  0  0  0  0  0  0  0  0
   -0.3065    0.9519    0.0000 C   0  0  0  0  0  0  0  0  0  0  0  0
    0.5008    1.5428    0.0000 N   0  0  0  0  0  0  0  0  0  0  0  0
   -1.2577    1.2605    0.0000 C   0  0  0  0  0  0  0  0  0  0  0  0
   -1.4660    2.2386    0.0000 O   0  0  0  0  0  0  0  0  0  0  0  0
   -2.0005    0.5910    0.0000 N   0  0  0  0  0  0  0  0  0  0  0  0
   -2.9517    0.8997    0.0000 N   0  0  0  0  0  0  0  0  0  0  0  0
   -3.6946    0.2302    0.0000 C   0  0  0  0  0  0  0  0  0  0  0  0
   -3.4862   -0.7479    0.0000 O   0  0  0  0  0  0  0  0  0  0  0  0
   -4.6458    0.5388    0.0000 C   0  0  0  0  0  0  0  0  0  0  0  0
   -5.4551   -0.0512    0.0000 C   0  0  0  0  0  0  0  0  0  0  0  0
   -6.2635    0.5374    0.0000 C   0  0  0  0  0  0  0  0  0  0  0  0
   -5.9592    1.4905    0.0000 N   0  0  0  0  0  0  0  0  0  0  0  0
   -4.9546    1.4917    0.0000 N   0  0  0  0  0  0  0  0  0  0  0  0
   -4.3670    2.3008    0.0000 C   0  0  0  0  0  0  0  0  0  0  0  0
  1  2  1  0  0  0  0
  2  7  1  0  0  0  0
  2  3  1  0  0  0  0
  3  4  2  0  0  0  0
  4  5  1  0  0  0  0
  4  6  1  0  0  0  0
  6  7  2  0  0  0  0
  6  8  1  0  0  0  0
  8  9  2  0  0  0  0
  8 10  1  0  0  0  0
 10 11  1  0  0  0  0
 11 12  1  0  0  0  0
 12 13  2  0  0  0  0
 12 14  1  0  0  0  0
 14 18  1  0  0  0  0
 14 15  2  0  0  0  0
 15 16  1  0  0  0  0
 16 17  2  0  0  0  0
 17 18  1  0  0  0  0
 18 19  1  0  0  0  0
M  END
> <ID>
371340

$$$$
371333
  -OEChem-05171416412D

 25 27  0     1  0  0  0  0  0999 V2000
   -1.7188   -5.0077    0.0000 C   0  0  0  0  0  0  0  0  0  0  0  0
   -0.8543   -4.5051    0.0000 C   0  0  0  0  0  0  0  0  0  0  0  0
   -0.8572   -3.5051    0.0000 O   0  0  0  0  0  0  0  0  0  0  0  0
   -1.7247   -3.0077    0.0000 C   0  0  0  0  0  0  0  0  0  0  0  0
   -2.5900   -3.5090    0.0000 C   0  0  0  0  0  0  0  0  0  0  0  0
   -3.4597   -3.0153    0.0000 C   0  0  0  0  0  0  0  0  0  0  0  0
   -3.4641   -2.0101    0.0000 C   0  0  0  0  0  0  0  0  0  0  0  0
   -2.5989   -1.4986    0.0000 C   0  0  0  0  0  0  0  0  0  0  0  0
   -1.7291   -2.0025    0.0000 C   0  0  0  0  0  0  0  0  0  0  0  0
   -0.8638   -1.5013    0.0000 N   0  0  0  0  0  0  0  0  0  0  0  0
   -0.8653   -0.5013    0.0000 C   0  0  0  0  0  0  0  0  0  0  0  0
   -1.7320   -0.0025    0.0000 O   0  0  0  0  0  0  0  0  0  0  0  0
    0.0000    0.0000    0.0000 C   0  0  0  0  0  0  0  0  0  0  0  0
   -0.0000    1.0052    0.0000 C   0  0  0  0  0  0  0  0  0  0  0  0
   -0.8675    1.5026    0.0000 C   0  0  0  0  0  0  0  0  0  0  0  0
    0.8675    1.5129    0.0000 N   0  0  0  0  0  0  0  0  0  0  0  0
    1.7350    1.0052    0.0000 C   0  0  0  0  0  0  0  0  0  0  0  0
    2.6025    1.5026    0.0000 S   0  0  0  0  0  0  0  0  0  0  0  0
    1.7350    0.0000    0.0000 N   0  0  0  0  0  0  0  0  0  0  0  0
    0.8675   -0.4975    0.0000 C   0  0  3  0  0  0  0  0  0  0  0  0
    0.8675   -1.4975    0.0000 C   0  0  0  0  0  0  0  0  0  0  0  0
    1.6773   -2.0870    0.0000 C   0  0  0  0  0  0  0  0  0  0  0  0
    1.3692   -3.0400    0.0000 C   0  0  0  0  0  0  0  0  0  0  0  0
    0.3692   -3.0387    0.0000 C   0  0  0  0  0  0  0  0  0  0  0  0
    0.0553   -2.0888    0.0000 S   0  0  0  0  0  0  0  0  0  0  0  0
  1  2  1  0  0  0  0
  2  3  1  0  0  0  0
  3  4  1  0  0  0  0
  4  9  2  0  0  0  0
  4  5  1  0  0  0  0
  5  6  2  0  0  0  0
  6  7  1  0  0  0  0
  7  8  2  0  0  0  0
  8  9  1  0  0  0  0
  9 10  1  0  0  0  0
 10 11  1  0  0  0  0
 11 12  2  0  0  0  0
 11 13  1  0  0  0  0
 13 20  1  0  0  0  0
 13 14  2  0  0  0  0
 14 15  1  0  0  0  0
 14 16  1  0  0  0  0
 16 17  1  0  0  0  0
 17 18  2  0  0  0  0
 17 19  1  0  0  0  0
 19 20  1  0  0  0  0
 20 21  1  0  0  0  0
 21 25  1  0  0  0  0
 21 22  2  0  0  0  0
 22 23  1  0  0  0  0
 23 24  2  0  0  0  0
 24 25  1  0  0  0  0
M  END
> <ID>
371333

$$$$
371332
  -OEChem-05171416412D

 36 39  0     0  0  0  0  0  0999 V2000
    7.3012   -1.2265    0.0000 C   0  0  0  0  0  0  0  0  0  0  0  0
    7.7961   -0.3575    0.0000 C   0  0  0  0  0  0  0  0  0  0  0  0
    8.7960   -0.3516    0.0000 O   0  0  0  0  0  0  0  0  0  0  0  0
    7.2909    0.5055    0.0000 C   0  0  0  0  0  0  0  0  0  0  0  0
    7.7909    1.3775    0.0000 C   0  0  0  0  0  0  0  0  0  0  0  0
    8.7909    1.3820    0.0000 C   0  0  0  0  0  0  0  0  0  0  0  0
    7.2858    2.2406    0.0000 C   0  0  0  0  0  0  0  0  0  0  0  0
    6.2857    2.2405    0.0000 C   0  0  0  0  0  0  0  0  0  0  0  0
    5.7844    3.1058    0.0000 C   0  0  0  0  0  0  0  0  0  0  0  0
    5.7857    1.3685    0.0000 C   0  0  0  0  0  0  0  0  0  0  0  0
    4.7857    1.3684    0.0000 C   0  0  0  0  0  0  0  0  0  0  0  0
    4.2858    0.5024    0.0000 S   0  0  0  0  0  0  0  0  0  0  0  0
    3.2858    0.5023    0.0000 C   0  0  0  0  0  0  0  0  0  0  0  0
    2.6938   -0.3125    0.0000 N   0  0  0  0  0  0  0  0  0  0  0  0
    1.7360   -0.0012    0.0000 C   0  0  0  0  0  0  0  0  0  0  0  0
    0.8680   -0.4978    0.0000 C   0  0  0  0  0  0  0  0  0  0  0  0
    0.0000    0.0000    0.0000 C   0  0  0  0  0  0  0  0  0  0  0  0
    0.0000    1.0058    0.0000 C   0  0  0  0  0  0  0  0  0  0  0  0
   -0.8675    1.5032    0.0000 N   0  0  0  0  0  0  0  0  0  0  0  0
   -1.7320    1.0007    0.0000 C   0  0  0  0  0  0  0  0  0  0  0  0
   -1.7291    0.0007    0.0000 O   0  0  0  0  0  0  0  0  0  0  0  0
   -2.5995    1.4981    0.0000 C   0  0  0  0  0  0  0  0  0  0  0  0
   -3.4671    0.9904    0.0000 C   0  0  0  0  0  0  0  0  0  0  0  0
   -4.3346    1.4878    0.0000 C   0  0  0  0  0  0  0  0  0  0  0  0
   -4.3434    2.4878    0.0000 C   0  0  0  0  0  0  0  0  0  0  0  0
   -3.4759    2.9955    0.0000 C   0  0  0  0  0  0  0  0  0  0  0  0
   -2.5995    2.5033    0.0000 C   0  0  0  0  0  0  0  0  0  0  0  0
   -5.2131    2.9814    0.0000 C   0  0  0  0  0  0  0  0  0  0  0  0
   -5.7067    2.1117    0.0000 C   0  0  0  0  0  0  0  0  0  0  0  0
   -4.7195    3.8511    0.0000 C   0  0  0  0  0  0  0  0  0  0  0  0
   -6.0828    3.4750    0.0000 C   0  0  0  0  0  0  0  0  0  0  0  0
    0.8680    1.5138    0.0000 C   0  0  0  0  0  0  0  0  0  0  0  0
    1.7360    1.0058    0.0000 C   0  0  0  0  0  0  0  0  0  0  0  0
    2.6938    1.3169    0.0000 S   0  0  0  0  0  0  0  0  0  0  0  0
    6.2858    0.4965    0.0000 C   0  0  0  0  0  0  0  0  0  0  0  0
    5.7884   -0.3710    0.0000 C   0  0  0  0  0  0  0  0  0  0  0  0
  1  2  1  0  0  0  0
  2  3  2  0  0  0  0
  2  4  1  0  0  0  0
  4 35  2  0  0  0  0
  4  5  1  0  0  0  0
  5  6  1  0  0  0  0
  5  7  2  0  0  0  0
  7  8  1  0  0  0  0
  8  9  1  0  0  0  0
  8 10  2  0  0  0  0
 10 11  1  0  0  0  0
 11 12  1  0  0  0  0
 12 13  1  0  0  0  0
 13 34  1  0  0  0  0
 13 14  2  0  0  0  0
 14 15  1  0  0  0  0
 15 33  2  0  0  0  0
 15 16  1  0  0  0  0
 16 17  2  0  0  0  0
 17 18  1  0  0  0  0
 18 19  1  0  0  0  0
 19 20  1  0  0  0  0
 20 21  2  0  0  0  0
 20 22  1  0  0  0  0
 22 27  2  0  0  0  0
 22 23  1  0  0  0  0
 23 24  2  0  0  0  0
 24 25  1  0  0  0  0
 25 26  2  0  0  0  0
 26 27  1  0  0  0  0
 25 28  1  0  0  0  0
 28 29  1  0  0  0  0
 28 30  1  0  0  0  0
 28 31  1  0  0  0  0
 18 32  2  0  0  0  0
 32 33  1  0  0  0  0
 33 34  1  0  0  0  0
 10 35  1  0  0  0  0
 35 36  1  0  0  0  0
M  END
> <ID>
371332

$$$$
371325
  -OEChem-05171416412D

 28 31  0     1  0  0  0  0  0999 V2000
    0.0085    5.0169    0.0000 C   0  0  0  0  0  0  0  0  0  0  0  0
    0.8723    4.5130    0.0000 N   0  0  0  0  0  0  0  0  0  0  0  0
    1.7405    5.0092    0.0000 C   0  0  0  0  0  0  0  0  0  0  0  0
    0.8679    3.5131    0.0000 C   0  0  0  0  0  0  0  0  0  0  0  0
    1.7377    3.0092    0.0000 C   0  0  0  0  0  0  0  0  0  0  0  0
    1.7333    2.0092    0.0000 C   0  0  0  0  0  0  0  0  0  0  0  0
    0.8680    1.5079    0.0000 C   0  0  0  0  0  0  0  0  0  0  0  0
   -0.0018    2.0118    0.0000 C   0  0  0  0  0  0  0  0  0  0  0  0
   -0.0063    3.0169    0.0000 C   0  0  0  0  0  0  0  0  0  0  0  0
    0.8680    0.5079    0.0000 C   0  0  3  0  0  0  0  0  0  0  0  0
    0.0000    0.0000    0.0000 C   0  0  0  0  0  0  0  0  0  0  0  0
   -0.0000   -1.0058    0.0000 C   0  0  0  0  0  0  0  0  0  0  0  0
   -0.8653   -1.5070    0.0000 N   0  0  0  0  0  0  0  0  0  0  0  0
    0.8680   -1.5037    0.0000 O   0  0  0  0  0  0  0  0  0  0  0  0
    1.7360   -1.0071    0.0000 C   0  0  0  0  0  0  0  0  0  0  0  0
    2.6938   -1.3184    0.0000 N   0  0  0  0  0  0  0  0  0  0  0  0
    3.2858   -0.5036    0.0000 N   0  0  0  0  0  0  0  0  0  0  0  0
    2.6938    0.3110    0.0000 C   0  0  0  0  0  0  0  0  0  0  0  0
    3.2346    1.9753    0.0000 C   0  0  0  0  0  0  0  0  0  0  0  0
    2.5599    2.7204    0.0000 C   0  0  0  0  0  0  0  0  0  0  0  0
    2.8689    3.6715    0.0000 C   0  0  0  0  0  0  0  0  0  0  0  0
    3.8458    3.8851    0.0000 C   0  0  0  0  0  0  0  0  0  0  0  0
    4.1507    4.8375    0.0000 C   0  0  0  0  0  0  0  0  0  0  0  0
    4.5206    3.1400    0.0000 C   0  0  0  0  0  0  0  0  0  0  0  0
    4.2184    2.1814    0.0000 C   0  0  0  0  0  0  0  0  0  0  0  0
    1.7360   -0.0000    0.0000 C   0  0  0  0  0  0  0  0  0  0  0  0
   -0.8675    0.4975    0.0000 C   0  0  0  0  0  0  0  0  0  0  0  0
   -1.7350    0.9950    0.0000 N   0  0  0  0  0  0  0  0  0  0  0  0
  1  2  1  0  0  0  0
  2  3  1  0  0  0  0
  2  4  1  0  0  0  0
  4  9  2  0  0  0  0
  4  5  1  0  0  0  0
  5  6  2  0  0  0  0
  6  7  1  0  0  0  0
  7  8  2  0  0  0  0
  8  9  1  0  0  0  0
  7 10  1  0  0  0  0
 10 26  1  0  0  0  0
 10 11  1  0  0  0  0
 11 12  2  0  0  0  0
 12 13  1  0  0  0  0
 12 14  1  0  0  0  0
 14 15  1  0  0  0  0
 15 26  2  0  0  0  0
 15 16  1  0  0  0  0
 16 17  1  0  0  0  0
 17 18  2  0  0  0  0
 18 19  1  0  0  0  0
 19 25  2  0  0  0  0
 19 20  1  0  0  0  0
 20 21  2  0  0  0  0
 21 22  1  0  0  0  0
 22 23  1  0  0  0  0
 22 24  2  0  0  0  0
 24 25  1  0  0  0  0
 18 26  1  0  0  0  0
 11 27  1  0  0  0  0
 27 28  3  0  0  0  0
M  END
> <ID>
371325

$$$$
371324
  -OEChem-05171416412D

 22 25  0     1  0  0  0  0  0999 V2000
    3.4692    3.0118    0.0000 Cl  0  0  0  0  0  0  0  0  0  0  0  0
    4.3361    2.5134    0.0000 C   0  0  0  0  0  0  0  0  0  0  0  0
    5.2020    3.0137    0.0000 C   0  0  0  0  0  0  0  0  0  0  0  0
    6.0711    2.5190    0.0000 C   0  0  0  0  0  0  0  0  0  0  0  0
    6.0744    1.5138    0.0000 C   0  0  0  0  0  0  0  0  0  0  0  0
    5.2085    1.0033    0.0000 C   0  0  0  0  0  0  0  0  0  0  0  0
    4.3394    1.5082    0.0000 C   0  0  0  0  0  0  0  0  0  0  0  0
    3.4735    1.0079    0.0000 C   0  0  0  0  0  0  0  0  0  0  0  0
    2.6012    1.5123    0.0000 N   0  0  0  0  0  0  0  0  0  0  0  0
    1.7358    1.0056    0.0000 C   0  0  3  0  0  0  0  0  0  0  0  0
    0.8679    1.5135    0.0000 C   0  0  0  0  0  0  0  0  0  0  0  0
    0.0000    1.0056    0.0000 C   0  0  0  0  0  0  0  0  0  0  0  0
    0.0000    0.0000    0.0000 C   0  0  0  0  0  0  0  0  0  0  0  0
    0.8679   -0.4977    0.0000 C   0  0  0  0  0  0  0  0  0  0  0  0
    1.7371    0.0000    0.0000 C   0  0  3  0  0  0  0  0  0  0  0  0
    2.6038   -0.4989    0.0000 C   0  0  0  0  0  0  0  0  0  0  0  0
    3.4748    0.0023    0.0000 N   0  0  0  0  0  0  0  0  0  0  0  0
    2.6037   -1.4989    0.0000 N   0  0  0  0  0  0  0  0  0  0  0  0
    1.7955   -2.0885    0.0000 C   0  0  0  0  0  0  0  0  0  0  0  0
    2.1005   -3.0409    0.0000 C   0  0  0  0  0  0  0  0  0  0  0  0
    3.1020   -3.0425    0.0000 C   0  0  0  0  0  0  0  0  0  0  0  0
    3.4153   -2.0911    0.0000 C   0  0  0  0  0  0  0  0  0  0  0  0
  1  2  1  0  0  0  0
  2  7  2  0  0  0  0
  2  3  1  0  0  0  0
  3  4  2  0  0  0  0
  4  5  1  0  0  0  0
  5  6  2  0  0  0  0
  6  7  1  0  0  0  0
  7  8  1  0  0  0  0
  8 17  1  0  0  0  0
  8  9  2  0  0  0  0
  9 10  1  0  0  0  0
 10 15  1  0  0  0  0
 10 11  1  0  0  0  0
 11 12  2  0  0  0  0
 12 13  1  0  0  0  0
 13 14  2  0  0  0  0
 14 15  1  0  0  0  0
 15 16  1  0  0  0  0
 16 17  2  0  0  0  0
 16 18  1  0  0  0  0
 18 22  1  0  0  0  0
 18 19  1  0  0  0  0
 19 20  1  0  0  0  0
 20 21  1  0  0  0  0
 21 22  1  0  0  0  0
M  END
> <ID>
371324

$$$$
371323
  -OEChem-05171416412D

 21 23  0     0  0  0  0  0  0999 V2000
   -1.2360   -3.8475    0.0000 C   0  0  0  0  0  0  0  0  0  0  0  0
   -0.2873   -4.1636    0.0000 O   0  0  0  0  0  0  0  0  0  0  0  0
    0.4608   -3.5001    0.0000 C   0  0  0  0  0  0  0  0  0  0  0  0
    0.2563   -2.5159    0.0000 C   0  0  0  0  0  0  0  0  0  0  0  0
    1.0045   -1.8523    0.0000 C   0  0  0  0  0  0  0  0  0  0  0  0
    1.9550   -2.1629    0.0000 C   0  0  0  0  0  0  0  0  0  0  0  0
    2.1595   -3.1471    0.0000 C   0  0  0  0  0  0  0  0  0  0  0  0
    1.4135   -3.8207    0.0000 C   0  0  0  0  0  0  0  0  0  0  0  0
    2.7003   -1.4961    0.0000 N   0  0  0  0  0  0  0  0  0  0  0  0
    3.6795   -1.7061    0.0000 C   0  0  0  0  0  0  0  0  0  0  0  0
    4.0835   -2.6208    0.0000 S   0  0  0  0  0  0  0  0  0  0  0  0
    4.1839   -0.8408    0.0000 N   0  0  0  0  0  0  0  0  0  0  0  0
    3.5134   -0.0928    0.0000 N   0  0  0  0  0  0  0  0  0  0  0  0
    2.6001   -0.5012    0.0000 C   0  0  0  0  0  0  0  0  0  0  0  0
    1.7348    0.0000    0.0000 C   0  0  0  0  0  0  0  0  0  0  0  0
    1.7348    1.0051    0.0000 N   0  0  0  0  0  0  0  0  0  0  0  0
    0.8674    1.5126    0.0000 N   0  0  0  0  0  0  0  0  0  0  0  0
    0.0000    1.0051    0.0000 C   0  0  0  0  0  0  0  0  0  0  0  0
   -0.8675    1.5026    0.0000 O   0  0  0  0  0  0  0  0  0  0  0  0
    0.0000    0.0000    0.0000 C   0  0  0  0  0  0  0  0  0  0  0  0
    0.8674   -0.4976    0.0000 C   0  0  0  0  0  0  0  0  0  0  0  0
  1  2  1  0  0  0  0
  2  3  1  0  0  0  0
  3  8  2  0  0  0  0
  3  4  1  0  0  0  0
  4  5  2  0  0  0  0
  5  6  1  0  0  0  0
  6  7  2  0  0  0  0
  7  8  1  0  0  0  0
  6  9  1  0  0  0  0
  9 14  1  0  0  0  0
  9 10  1  0  0  0  0
 10 11  2  0  0  0  0
 10 12  1  0  0  0  0
 12 13  1  0  0  0  0
 13 14  2  0  0  0  0
 14 15  1  0  0  0  0
 15 21  1  0  0  0  0
 15 16  2  0  0  0  0
 16 17  1  0  0  0  0
 17 18  1  0  0  0  0
 18 19  2  0  0  0  0
 18 20  1  0  0  0  0
 20 21  1  0  0  0  0
M  END
> <ID>
371323

$$$$
371317
  -OEChem-05171416412D

 27 30  0     0  0  0  0  0  0999 V2000
    0.0000    0.0000    0.0000 C   0  0  0  0  0  0  0  0  0  0  0  0
    1.0000    0.0000    0.0000 C   0  0  0  0  0  0  0  0  0  0  0  0
    1.5000    0.8660    0.0000 C   0  0  0  0  0  0  0  0  0  0  0  0
    2.5000    0.8660    0.0000 C   0  0  0  0  0  0  0  0  0  0  0  0
    3.0000    1.7321    0.0000 S   0  0  0  0  0  0  0  0  0  0  0  0
    4.0000    1.7321    0.0000 C   0  0  0  0  0  0  0  0  0  0  0  0
    4.5000    2.5981    0.0000 N   0  0  0  0  0  0  0  0  0  0  0  0
    5.5000    2.5981    0.0000 C   0  0  0  0  0  0  0  0  0  0  0  0
    6.0000    1.7321    0.0000 C   0  0  0  0  0  0  0  0  0  0  0  0
    5.5000    0.8660    0.0000 C   0  0  0  0  0  0  0  0  0  0  0  0
    6.0000   -0.0000    0.0000 O   0  0  0  0  0  0  0  0  0  0  0  0
    4.5000    0.8660    0.0000 N   0  0  0  0  0  0  0  0  0  0  0  0
    4.0000   -0.0000    0.0000 C   0  0  0  0  0  0  0  0  0  0  0  0
    4.5000   -0.8660    0.0000 C   0  0  0  0  0  0  0  0  0  0  0  0
    4.0000   -1.7321    0.0000 C   0  0  0  0  0  0  0  0  0  0  0  0
    7.0000    1.7321    0.0000 C   0  0  0  0  0  0  0  0  0  0  0  0
    6.5933    0.8185    0.0000 C   0  0  0  0  0  0  0  0  0  0  0  0
    7.3364    0.1494    0.0000 C   0  0  0  0  0  0  0  0  0  0  0  0
    8.2024    0.6494    0.0000 C   0  0  0  0  0  0  0  0  0  0  0  0
    7.9945    1.6275    0.0000 C   0  0  0  0  0  0  0  0  0  0  0  0
    7.5000    2.5981    0.0000 C   0  0  0  0  0  0  0  0  0  0  0  0
    7.0000    3.4641    0.0000 C   0  0  0  0  0  0  0  0  0  0  0  0
    7.5000    4.3301    0.0000 C   0  0  0  0  0  0  0  0  0  0  0  0
    7.0000    5.1962    0.0000 C   0  0  0  0  0  0  0  0  0  0  0  0
    6.0000    5.1962    0.0000 C   0  0  0  0  0  0  0  0  0  0  0  0
    5.5000    4.3301    0.0000 C   0  0  0  0  0  0  0  0  0  0  0  0
    6.0000    3.4641    0.0000 C   0  0  0  0  0  0  0  0  0  0  0  0
  1  2  1  0  0  0  0
  2  3  1  0  0  0  0
  3  4  1  0  0  0  0
  4  5  1  0  0  0  0
  5  6  1  0  0  0  0
  6 12  1  0  0  0  0
  6  7  2  0  0  0  0
  7  8  1  0  0  0  0
  8 27  1  0  0  0  0
  8  9  2  0  0  0  0
  9 10  1  0  0  0  0
 10 11  2  0  0  0  0
 10 12  1  0  0  0  0
 12 13  1  0  0  0  0
 13 14  1  0  0  0  0
 14 15  2  0  0  0  0
  9 16  1  0  0  0  0
 16 20  1  0  0  0  0
 16 17  1  0  0  0  0
 17 18  1  0  0  0  0
 18 19  1  0  0  0  0
 19 20  1  0  0  0  0
 16 21  1  0  0  0  0
 21 22  1  0  0  0  0
 22 27  2  0  0  0  0
 22 23  1  0  0  0  0
 23 24  2  0  0  0  0
 24 25  1  0  0  0  0
 25 26  2  0  0  0  0
 26 27  1  0  0  0  0
M  END
> <ID>
371317

$$$$
27112
  -OEChem-05171416412D

 25 26  0     1  0  0  0  0  0999 V2000
    5.1904   -6.0050    0.0000 C   0  0  0  0  0  0  0  0  0  0  0  0
    5.1918   -5.0050    0.0000 C   0  0  0  0  0  0  0  0  0  0  0  0
    4.3265   -4.5038    0.0000 C   0  0  0  0  0  0  0  0  0  0  0  0
    4.3280   -3.5038    0.0000 N   0  0  0  0  0  0  0  0  0  0  0  0
    3.4627   -3.0025    0.0000 C   0  0  0  0  0  0  0  0  0  0  0  0
    3.4641   -2.0025    0.0000 C   0  0  3  0  0  0  0  0  0  0  0  0
    4.3309   -1.5038    0.0000 O   0  0  0  0  0  0  0  0  0  0  0  0
    2.5988   -1.5013    0.0000 C   0  0  0  0  0  0  0  0  0  0  0  0
    2.6003   -0.5013    0.0000 O   0  0  0  0  0  0  0  0  0  0  0  0
    1.7350    0.0000    0.0000 C   0  0  0  0  0  0  0  0  0  0  0  0
    0.8675   -0.4975    0.0000 C   0  0  0  0  0  0  0  0  0  0  0  0
    0.0000    0.0000    0.0000 C   0  0  0  0  0  0  0  0  0  0  0  0
   -0.0000    1.0052    0.0000 C   0  0  0  0  0  0  0  0  0  0  0  0
    0.8675    1.5129    0.0000 C   0  0  0  0  0  0  0  0  0  0  0  0
    1.7350    1.0052    0.0000 C   0  0  0  0  0  0  0  0  0  0  0  0
    2.6025    1.5026    0.0000 C   0  0  0  0  0  0  0  0  0  0  0  0
    3.4670    1.0001    0.0000 O   0  0  0  0  0  0  0  0  0  0  0  0
    2.6054    2.5026    0.0000 C   0  0  0  0  0  0  0  0  0  0  0  0
    3.4729    3.0001    0.0000 C   0  0  0  0  0  0  0  0  0  0  0  0
    3.4759    4.0001    0.0000 C   0  0  0  0  0  0  0  0  0  0  0  0
    2.6054    4.5027    0.0000 C   0  0  0  0  0  0  0  0  0  0  0  0
    2.6083    5.5027    0.0000 C   0  0  0  0  0  0  0  0  0  0  0  0
    3.4729    6.0052    0.0000 C   0  0  0  0  0  0  0  0  0  0  0  0
    4.3434    5.5026    0.0000 C   0  0  0  0  0  0  0  0  0  0  0  0
    4.3493    4.4975    0.0000 C   0  0  0  0  0  0  0  0  0  0  0  0
  1  2  1  0  0  0  0
  2  3  1  0  0  0  0
  3  4  1  0  0  0  0
  4  5  1  0  0  0  0
  5  6  1  0  0  0  0
  6  7  1  0  0  0  0
  6  8  1  0  0  0  0
  8  9  1  0  0  0  0
  9 10  1  0  0  0  0
 10 15  2  0  0  0  0
 10 11  1  0  0  0  0
 11 12  2  0  0  0  0
 12 13  1  0  0  0  0
 13 14  2  0  0  0  0
 14 15  1  0  0  0  0
 15 16  1  0  0  0  0
 16 17  2  0  0  0  0
 16 18  1  0  0  0  0
 18 19  1  0  0  0  0
 19 20  1  0  0  0  0
 20 25  2  0  0  0  0
 20 21  1  0  0  0  0
 21 22  2  0  0  0  0
 22 23  1  0  0  0  0
 23 24  2  0  0  0  0
 24 25  1  0  0  0  0
M  END
> <ID>
27112

$$$$
243520
  -OEChem-05171416412D

 34 37  0     1  0  0  0  0  0999 V2000
   -1.7321    3.0104    0.0000 O   0  0  0  0  0  0  0  0  0  0  0  0
   -0.8660    3.5104    0.0000 C   0  0  3  0  0  0  0  0  0  0  0  0
   -0.8660    4.5104    0.0000 C   0  0  0  0  0  0  0  0  0  0  0  0
   -1.7321    5.0104    0.0000 O   0  0  0  0  0  0  0  0  0  0  0  0
   -1.7321    6.0104    0.0000 C   0  0  0  0  0  0  0  0  0  0  0  0
   -2.5974    6.5117    0.0000 C   0  0  0  0  0  0  0  0  0  0  0  0
   -2.6017    7.5117    0.0000 C   0  0  0  0  0  0  0  0  0  0  0  0
   -1.7319    8.0156    0.0000 C   0  0  0  0  0  0  0  0  0  0  0  0
   -0.8578    7.5194    0.0000 C   0  0  0  0  0  0  0  0  0  0  0  0
   -0.8623    6.5143    0.0000 C   0  0  0  0  0  0  0  0  0  0  0  0
    0.0030    6.0130    0.0000 C   0  0  0  0  0  0  0  0  0  0  0  0
    0.0015    5.0130    0.0000 O   0  0  0  0  0  0  0  0  0  0  0  0
    0.8698    6.5117    0.0000 C   0  0  0  0  0  0  0  0  0  0  0  0
    1.7351    6.0104    0.0000 C   0  0  0  0  0  0  0  0  0  0  0  0
    2.6018    6.5091    0.0000 C   0  0  0  0  0  0  0  0  0  0  0  0
    2.6004    7.5143    0.0000 C   0  0  0  0  0  0  0  0  0  0  0  0
    3.4672    8.0130    0.0000 C   0  0  0  0  0  0  0  0  0  0  0  0
    4.3354    7.5168    0.0000 C   0  0  0  0  0  0  0  0  0  0  0  0
    4.3368    6.5116    0.0000 C   0  0  0  0  0  0  0  0  0  0  0  0
    3.4701    6.0026    0.0000 C   0  0  0  0  0  0  0  0  0  0  0  0
   -0.0000    3.0104    0.0000 C   0  0  0  0  0  0  0  0  0  0  0  0
   -0.0000    2.0104    0.0000 N   0  0  0  0  0  0  0  0  0  0  0  0
   -0.8675    1.5027    0.0000 C   0  0  0  0  0  0  0  0  0  0  0  0
   -0.8675    0.4975    0.0000 C   0  0  0  0  0  0  0  0  0  0  0  0
    0.0000    0.0000    0.0000 C   0  0  0  0  0  0  0  0  0  0  0  0
    0.6420   -0.7667    0.0000 O   0  0  0  0  0  0  0  0  0  0  0  0
    0.8675    0.4975    0.0000 C   0  0  0  0  0  0  0  0  0  0  0  0
    0.8675    1.5027    0.0000 C   0  0  0  0  0  0  0  0  0  0  0  0
   -0.6420   -0.7667    0.0000 C   0  0  0  0  0  0  0  0  0  0  0  0
   -0.2946   -1.7099    0.0000 C   0  0  0  0  0  0  0  0  0  0  0  0
   -0.9366   -2.4766    0.0000 C   0  0  0  0  0  0  0  0  0  0  0  0
   -1.9226   -2.3097    0.0000 C   0  0  0  0  0  0  0  0  0  0  0  0
   -2.2701   -1.3665    0.0000 C   0  0  0  0  0  0  0  0  0  0  0  0
   -1.6316   -0.5902    0.0000 C   0  0  0  0  0  0  0  0  0  0  0  0
  1  2  1  0  0  0  0
  2  3  1  0  0  0  0
  3  4  1  0  0  0  0
  4  5  1  0  0  0  0
  5 10  2  0  0  0  0
  5  6  1  0  0  0  0
  6  7  2  0  0  0  0
  7  8  1  0  0  0  0
  8  9  2  0  0  0  0
  9 10  1  0  0  0  0
 10 11  1  0  0  0  0
 11 12  2  0  0  0  0
 11 13  1  0  0  0  0
 13 14  1  0  0  0  0
 14 15  1  0  0  0  0
 15 20  2  0  0  0  0
 15 16  1  0  0  0  0
 16 17  2  0  0  0  0
 17 18  1  0  0  0  0
 18 19  2  0  0  0  0
 19 20  1  0  0  0  0
  2 21  1  0  0  0  0
 21 22  1  0  0  0  0
 22 28  1  0  0  0  0
 22 23  1  0  0  0  0
 23 24  1  0  0  0  0
 24 25  1  0  0  0  0
 25 26  1  0  0  0  0
 25 27  1  0  0  0  0
 27 28  1  0  0  0  0
 25 29  1  0  0  0  0
 29 34  2  0  0  0  0
 29 30  1  0  0  0  0
 30 31  2  0  0  0  0
 31 32  1  0  0  0  0
 32 33  2  0  0  0  0
 33 34  1  0  0  0  0
M  END
> <ID>
243520

$$$$
153209
  -OEChem-05171416412D

 27 29  0     1  0  0  0  0  0999 V2000
    2.5996   -1.4975    0.0000 O   0  0  0  0  0  0  0  0  0  0  0  0
    1.7335   -1.9975    0.0000 C   0  0  3  0  0  0  0  0  0  0  0  0
    1.7335   -2.9975    0.0000 C   0  0  0  0  0  0  0  0  0  0  0  0
    2.5996   -3.4975    0.0000 O   0  0  0  0  0  0  0  0  0  0  0  0
    2.5996   -4.4975    0.0000 C   0  0  0  0  0  0  0  0  0  0  0  0
    3.4649   -4.9988    0.0000 C   0  0  0  0  0  0  0  0  0  0  0  0
    3.4692   -5.9988    0.0000 C   0  0  0  0  0  0  0  0  0  0  0  0
    2.5994   -6.5027    0.0000 C   0  0  0  0  0  0  0  0  0  0  0  0
    1.7253   -6.0065    0.0000 C   0  0  0  0  0  0  0  0  0  0  0  0
    1.7298   -5.0014    0.0000 C   0  0  0  0  0  0  0  0  0  0  0  0
    0.8645   -4.5001    0.0000 C   0  0  0  0  0  0  0  0  0  0  0  0
    0.8660   -3.5001    0.0000 O   0  0  0  0  0  0  0  0  0  0  0  0
   -0.0023   -4.9988    0.0000 C   0  0  0  0  0  0  0  0  0  0  0  0
   -0.8676   -4.4975    0.0000 C   0  0  0  0  0  0  0  0  0  0  0  0
   -1.7343   -4.9962    0.0000 C   0  0  0  0  0  0  0  0  0  0  0  0
   -1.7329   -6.0014    0.0000 C   0  0  0  0  0  0  0  0  0  0  0  0
   -2.5997   -6.5001    0.0000 C   0  0  0  0  0  0  0  0  0  0  0  0
   -3.4679   -6.0039    0.0000 C   0  0  0  0  0  0  0  0  0  0  0  0
   -3.4693   -4.9987    0.0000 C   0  0  0  0  0  0  0  0  0  0  0  0
   -2.6026   -4.4897    0.0000 C   0  0  0  0  0  0  0  0  0  0  0  0
    0.8675   -1.4975    0.0000 C   0  0  0  0  0  0  0  0  0  0  0  0
    0.8675   -0.4975    0.0000 N   0  0  0  0  0  0  0  0  0  0  0  0
    0.0000    0.0000    0.0000 C   0  0  0  0  0  0  0  0  0  0  0  0
   -0.0000    1.0052    0.0000 C   0  0  0  0  0  0  0  0  0  0  0  0
    0.8675    1.5129    0.0000 O   0  0  0  0  0  0  0  0  0  0  0  0
    1.7350    1.0052    0.0000 C   0  0  0  0  0  0  0  0  0  0  0  0
    1.7350    0.0000    0.0000 C   0  0  0  0  0  0  0  0  0  0  0  0
  1  2  1  0  0  0  0
  2  3  1  0  0  0  0
  3  4  1  0  0  0  0
  4  5  1  0  0  0  0
  5 10  2  0  0  0  0
  5  6  1  0  0  0  0
  6  7  2  0  0  0  0
  7  8  1  0  0  0  0
  8  9  2  0  0  0  0
  9 10  1  0  0  0  0
 10 11  1  0  0  0  0
 11 12  2  0  0  0  0
 11 13  1  0  0  0  0
 13 14  1  0  0  0  0
 14 15  1  0  0  0  0
 15 20  2  0  0  0  0
 15 16  1  0  0  0  0
 16 17  2  0  0  0  0
 17 18  1  0  0  0  0
 18 19  2  0  0  0  0
 19 20  1  0  0  0  0
  2 21  1  0  0  0  0
 21 22  1  0  0  0  0
 22 27  1  0  0  0  0
 22 23  1  0  0  0  0
 23 24  1  0  0  0  0
 24 25  1  0  0  0  0
 25 26  1  0  0  0  0
 26 27  1  0  0  0  0
M  END
> <ID>
153209

$$$$
152682
  -OEChem-05171416412D

 24 25  0     1  0  0  0  0  0999 V2000
    7.7964   -0.5088    0.0000 C   0  0  0  0  0  0  0  0  0  0  0  0
    6.9311   -0.0075    0.0000 C   0  0  0  0  0  0  0  0  0  0  0  0
    6.0644   -0.5063    0.0000 N   0  0  0  0  0  0  0  0  0  0  0  0
    6.0629   -1.5063    0.0000 C   0  0  0  0  0  0  0  0  0  0  0  0
    6.9282   -2.0075    0.0000 C   0  0  0  0  0  0  0  0  0  0  0  0
    5.1991   -0.0050    0.0000 C   0  0  0  0  0  0  0  0  0  0  0  0
    4.3323   -0.5038    0.0000 C   0  0  3  0  0  0  0  0  0  0  0  0
    4.3309   -1.5038    0.0000 O   0  0  0  0  0  0  0  0  0  0  0  0
    3.4670   -0.0025    0.0000 C   0  0  0  0  0  0  0  0  0  0  0  0
    2.6003   -0.5013    0.0000 O   0  0  0  0  0  0  0  0  0  0  0  0
    1.7350    0.0000    0.0000 C   0  0  0  0  0  0  0  0  0  0  0  0
    0.8675   -0.4975    0.0000 C   0  0  0  0  0  0  0  0  0  0  0  0
    0.0000    0.0000    0.0000 C   0  0  0  0  0  0  0  0  0  0  0  0
   -0.0000    1.0052    0.0000 C   0  0  0  0  0  0  0  0  0  0  0  0
    0.8675    1.5129    0.0000 C   0  0  0  0  0  0  0  0  0  0  0  0
    1.7350    1.0052    0.0000 C   0  0  0  0  0  0  0  0  0  0  0  0
    2.6025    1.5026    0.0000 C   0  0  0  0  0  0  0  0  0  0  0  0
    3.4670    1.0001    0.0000 O   0  0  0  0  0  0  0  0  0  0  0  0
    2.6054    2.5026    0.0000 C   0  0  0  0  0  0  0  0  0  0  0  0
    1.7349    3.0052    0.0000 C   0  0  0  0  0  0  0  0  0  0  0  0
    1.7378    4.0053    0.0000 C   0  0  0  0  0  0  0  0  0  0  0  0
    2.6024    4.5078    0.0000 C   0  0  0  0  0  0  0  0  0  0  0  0
    3.4729    4.0052    0.0000 C   0  0  0  0  0  0  0  0  0  0  0  0
    3.4789    3.0001    0.0000 C   0  0  0  0  0  0  0  0  0  0  0  0
  1  2  1  0  0  0  0
  2  3  1  0  0  0  0
  3  4  1  0  0  0  0
  4  5  1  0  0  0  0
  3  6  1  0  0  0  0
  6  7  1  0  0  0  0
  7  8  1  0  0  0  0
  7  9  1  0  0  0  0
  9 10  1  0  0  0  0
 10 11  1  0  0  0  0
 11 16  2  0  0  0  0
 11 12  1  0  0  0  0
 12 13  2  0  0  0  0
 13 14  1  0  0  0  0
 14 15  2  0  0  0  0
 15 16  1  0  0  0  0
 16 17  1  0  0  0  0
 17 18  2  0  0  0  0
 17 19  1  0  0  0  0
 19 24  2  0  0  0  0
 19 20  1  0  0  0  0
 20 21  2  0  0  0  0
 21 22  1  0  0  0  0
 22 23  2  0  0  0  0
 23 24  1  0  0  0  0
M  END
> <ID>
152682

$$$$
153501
  -OEChem-05171416412D

 26 27  0     1  0  0  0  0  0999 V2000
    5.1904   -6.0050    0.0000 C   0  0  0  0  0  0  0  0  0  0  0  0
    5.1918   -5.0050    0.0000 C   0  0  0  0  0  0  0  0  0  0  0  0
    4.3265   -4.5038    0.0000 C   0  0  0  0  0  0  0  0  0  0  0  0
    4.3280   -3.5038    0.0000 N   0  0  3  0  0  0  0  0  0  0  0  0
    5.1947   -3.0050    0.0000 C   0  0  0  0  0  0  0  0  0  0  0  0
    3.4627   -3.0025    0.0000 C   0  0  0  0  0  0  0  0  0  0  0  0
    3.4641   -2.0025    0.0000 C   0  0  3  0  0  0  0  0  0  0  0  0
    4.3309   -1.5038    0.0000 O   0  0  0  0  0  0  0  0  0  0  0  0
    2.5988   -1.5013    0.0000 C   0  0  0  0  0  0  0  0  0  0  0  0
    2.6003   -0.5013    0.0000 O   0  0  0  0  0  0  0  0  0  0  0  0
    1.7350    0.0000    0.0000 C   0  0  0  0  0  0  0  0  0  0  0  0
    0.8675   -0.4975    0.0000 C   0  0  0  0  0  0  0  0  0  0  0  0
    0.0000    0.0000    0.0000 C   0  0  0  0  0  0  0  0  0  0  0  0
   -0.0000    1.0052    0.0000 C   0  0  0  0  0  0  0  0  0  0  0  0
    0.8675    1.5129    0.0000 C   0  0  0  0  0  0  0  0  0  0  0  0
    1.7350    1.0052    0.0000 C   0  0  0  0  0  0  0  0  0  0  0  0
    2.6025    1.5026    0.0000 C   0  0  0  0  0  0  0  0  0  0  0  0
    3.4670    1.0001    0.0000 O   0  0  0  0  0  0  0  0  0  0  0  0
    2.6054    2.5026    0.0000 C   0  0  0  0  0  0  0  0  0  0  0  0
    3.4729    3.0001    0.0000 C   0  0  0  0  0  0  0  0  0  0  0  0
    3.4759    4.0001    0.0000 C   0  0  0  0  0  0  0  0  0  0  0  0
    2.6054    4.5027    0.0000 C   0  0  0  0  0  0  0  0  0  0  0  0
    2.6083    5.5027    0.0000 C   0  0  0  0  0  0  0  0  0  0  0  0
    3.4729    6.0052    0.0000 C   0  0  0  0  0  0  0  0  0  0  0  0
    4.3434    5.5026    0.0000 C   0  0  0  0  0  0  0  0  0  0  0  0
    4.3493    4.4975    0.0000 C   0  0  0  0  0  0  0  0  0  0  0  0
  1  2  1  0  0  0  0
  2  3  1  0  0  0  0
  3  4  1  0  0  0  0
  4  5  1  0  0  0  0
  4  6  1  0  0  0  0
  6  7  1  0  0  0  0
  7  8  1  0  0  0  0
  7  9  1  0  0  0  0
  9 10  1  0  0  0  0
 10 11  1  0  0  0  0
 11 16  2  0  0  0  0
 11 12  1  0  0  0  0
 12 13  2  0  0  0  0
 13 14  1  0  0  0  0
 14 15  2  0  0  0  0
 15 16  1  0  0  0  0
 16 17  1  0  0  0  0
 17 18  2  0  0  0  0
 17 19  1  0  0  0  0
 19 20  1  0  0  0  0
 20 21  1  0  0  0  0
 21 26  2  0  0  0  0
 21 22  1  0  0  0  0
 22 23  2  0  0  0  0
 23 24  1  0  0  0  0
 24 25  2  0  0  0  0
 25 26  1  0  0  0  0
M  END
> <ID>
153501

$$$$
238279
  -OEChem-05171416412D

 24 25  0     1  0  0  0  0  0999 V2000
    6.9311   -0.0075    0.0000 C   0  0  0  0  0  0  0  0  0  0  0  0
    6.0644   -0.5063    0.0000 N   0  0  0  0  0  0  0  0  0  0  0  0
    6.0629   -1.5063    0.0000 C   0  0  0  0  0  0  0  0  0  0  0  0
    5.1991   -0.0050    0.0000 C   0  0  0  0  0  0  0  0  0  0  0  0
    4.3323   -0.5038    0.0000 C   0  0  3  0  0  0  0  0  0  0  0  0
    4.3309   -1.5038    0.0000 O   0  0  0  0  0  0  0  0  0  0  0  0
    3.4670   -0.0025    0.0000 C   0  0  0  0  0  0  0  0  0  0  0  0
    2.6003   -0.5013    0.0000 O   0  0  0  0  0  0  0  0  0  0  0  0
    1.7350    0.0000    0.0000 C   0  0  0  0  0  0  0  0  0  0  0  0
    0.8675   -0.4975    0.0000 C   0  0  0  0  0  0  0  0  0  0  0  0
    0.0000    0.0000    0.0000 C   0  0  0  0  0  0  0  0  0  0  0  0
   -0.0000    1.0052    0.0000 C   0  0  0  0  0  0  0  0  0  0  0  0
    0.8675    1.5129    0.0000 C   0  0  0  0  0  0  0  0  0  0  0  0
    1.7350    1.0052    0.0000 C   0  0  0  0  0  0  0  0  0  0  0  0
    2.6025    1.5026    0.0000 C   0  0  0  0  0  0  0  0  0  0  0  0
    3.4670    1.0001    0.0000 O   0  0  0  0  0  0  0  0  0  0  0  0
    2.6054    2.5026    0.0000 C   0  0  0  0  0  0  0  0  0  0  0  0
    3.4729    3.0001    0.0000 C   0  0  0  0  0  0  0  0  0  0  0  0
    3.4759    4.0001    0.0000 C   0  0  0  0  0  0  0  0  0  0  0  0
    2.6054    4.5027    0.0000 C   0  0  0  0  0  0  0  0  0  0  0  0
    2.6083    5.5027    0.0000 C   0  0  0  0  0  0  0  0  0  0  0  0
    3.4729    6.0052    0.0000 C   0  0  0  0  0  0  0  0  0  0  0  0
    4.3434    5.5026    0.0000 C   0  0  0  0  0  0  0  0  0  0  0  0
    4.3493    4.4975    0.0000 C   0  0  0  0  0  0  0  0  0  0  0  0
  1  2  1  0  0  0  0
  2  3  1  0  0  0  0
  2  4  1  0  0  0  0
  4  5  1  0  0  0  0
  5  6  1  0  0  0  0
  5  7  1  0  0  0  0
  7  8  1  0  0  0  0
  8  9  1  0  0  0  0
  9 14  2  0  0  0  0
  9 10  1  0  0  0  0
 10 11  2  0  0  0  0
 11 12  1  0  0  0  0
 12 13  2  0  0  0  0
 13 14  1  0  0  0  0
 14 15  1  0  0  0  0
 15 16  2  0  0  0  0
 15 17  1  0  0  0  0
 17 18  1  0  0  0  0
 18 19  1  0  0  0  0
 19 24  2  0  0  0  0
 19 20  1  0  0  0  0
 20 21  2  0  0  0  0
 21 22  1  0  0  0  0
 22 23  2  0  0  0  0
 23 24  1  0  0  0  0
M  END
> <ID>
238279

$$$$
238255
  -OEChem-05171416412D

 27 29  0     1  0  0  0  0  0999 V2000
   -3.4687    6.0100    0.0000 C   0  0  0  0  0  0  0  0  0  0  0  0
   -2.6019    5.5113    0.0000 C   0  0  0  0  0  0  0  0  0  0  0  0
   -2.6004    4.5113    0.0000 O   0  0  0  0  0  0  0  0  0  0  0  0
   -1.7367    6.0126    0.0000 C   0  0  0  0  0  0  0  0  0  0  0  0
   -1.7367    7.0127    0.0000 C   0  0  0  0  0  0  0  0  0  0  0  0
   -0.8736    7.5177    0.0000 C   0  0  0  0  0  0  0  0  0  0  0  0
   -0.0016    7.0177    0.0000 C   0  0  0  0  0  0  0  0  0  0  0  0
    0.0073    6.0126    0.0000 C   0  0  0  0  0  0  0  0  0  0  0  0
   -0.8647    5.5126    0.0000 C   0  0  0  0  0  0  0  0  0  0  0  0
   -0.8647    4.5126    0.0000 O   0  0  0  0  0  0  0  0  0  0  0  0
    0.0014    4.0126    0.0000 C   0  0  0  0  0  0  0  0  0  0  0  0
    0.0014    3.0126    0.0000 C   0  0  3  0  0  0  0  0  0  0  0  0
   -0.8647    2.5126    0.0000 O   0  0  0  0  0  0  0  0  0  0  0  0
    0.8674    2.5126    0.0000 C   0  0  0  0  0  0  0  0  0  0  0  0
    0.8674    1.5126    0.0000 N   0  0  0  0  0  0  0  0  0  0  0  0
    0.0000    1.0051    0.0000 C   0  0  0  0  0  0  0  0  0  0  0  0
    0.0000    0.0000    0.0000 C   0  0  0  0  0  0  0  0  0  0  0  0
    0.8674   -0.4976    0.0000 N   0  0  0  0  0  0  0  0  0  0  0  0
    1.7348    0.0000    0.0000 C   0  0  0  0  0  0  0  0  0  0  0  0
    1.7348    1.0051    0.0000 C   0  0  0  0  0  0  0  0  0  0  0  0
    0.8674   -1.4976    0.0000 C   0  0  0  0  0  0  0  0  0  0  0  0
    1.7394   -1.9976    0.0000 C   0  0  0  0  0  0  0  0  0  0  0  0
    1.7395   -2.9977    0.0000 C   0  0  0  0  0  0  0  0  0  0  0  0
    0.8763   -3.5027    0.0000 C   0  0  0  0  0  0  0  0  0  0  0  0
    0.8807   -4.5027    0.0000 F   0  0  0  0  0  0  0  0  0  0  0  0
    0.0043   -3.0027    0.0000 C   0  0  0  0  0  0  0  0  0  0  0  0
   -0.0046   -1.9976    0.0000 C   0  0  0  0  0  0  0  0  0  0  0  0
  1  2  1  0  0  0  0
  2  3  2  0  0  0  0
  2  4  1  0  0  0  0
  4  9  2  0  0  0  0
  4  5  1  0  0  0  0
  5  6  2  0  0  0  0
  6  7  1  0  0  0  0
  7  8  2  0  0  0  0
  8  9  1  0  0  0  0
  9 10  1  0  0  0  0
 10 11  1  0  0  0  0
 11 12  1  0  0  0  0
 12 13  1  0  0  0  0
 12 14  1  0  0  0  0
 14 15  1  0  0  0  0
 15 20  1  0  0  0  0
 15 16  1  0  0  0  0
 16 17  1  0  0  0  0
 17 18  1  0  0  0  0
 18 19  1  0  0  0  0
 19 20  1  0  0  0  0
 18 21  1  0  0  0  0
 21 27  2  0  0  0  0
 21 22  1  0  0  0  0
 22 23  2  0  0  0  0
 23 24  1  0  0  0  0
 24 25  1  0  0  0  0
 24 26  2  0  0  0  0
 26 27  1  0  0  0  0
M  END
> <ID>
238255

$$$$
153168
  -OEChem-05171416412D

 34 37  0     1  0  0  0  0  0999 V2000
   -0.8647    2.5126    0.0000 O   0  0  0  0  0  0  0  0  0  0  0  0
    0.0014    3.0126    0.0000 C   0  0  3  0  0  0  0  0  0  0  0  0
    0.0014    4.0126    0.0000 C   0  0  0  0  0  0  0  0  0  0  0  0
   -0.8647    4.5126    0.0000 O   0  0  0  0  0  0  0  0  0  0  0  0
   -0.8647    5.5126    0.0000 C   0  0  0  0  0  0  0  0  0  0  0  0
   -1.7300    6.0139    0.0000 C   0  0  0  0  0  0  0  0  0  0  0  0
   -1.7343    7.0139    0.0000 C   0  0  0  0  0  0  0  0  0  0  0  0
   -0.8645    7.5178    0.0000 C   0  0  0  0  0  0  0  0  0  0  0  0
    0.0096    7.0216    0.0000 C   0  0  0  0  0  0  0  0  0  0  0  0
    0.0051    6.0165    0.0000 C   0  0  0  0  0  0  0  0  0  0  0  0
    0.8704    5.5152    0.0000 C   0  0  0  0  0  0  0  0  0  0  0  0
    0.8689    4.5152    0.0000 O   0  0  0  0  0  0  0  0  0  0  0  0
    1.7372    6.0139    0.0000 C   0  0  0  0  0  0  0  0  0  0  0  0
    2.6025    5.5126    0.0000 C   0  0  0  0  0  0  0  0  0  0  0  0
    3.4692    6.0113    0.0000 C   0  0  0  0  0  0  0  0  0  0  0  0
    3.4678    7.0165    0.0000 C   0  0  0  0  0  0  0  0  0  0  0  0
    4.3346    7.5152    0.0000 C   0  0  0  0  0  0  0  0  0  0  0  0
    5.2028    7.0190    0.0000 C   0  0  0  0  0  0  0  0  0  0  0  0
    5.2042    6.0138    0.0000 C   0  0  0  0  0  0  0  0  0  0  0  0
    4.3375    5.5048    0.0000 C   0  0  0  0  0  0  0  0  0  0  0  0
    0.8674    2.5126    0.0000 C   0  0  0  0  0  0  0  0  0  0  0  0
    0.8674    1.5126    0.0000 N   0  0  0  0  0  0  0  0  0  0  0  0
    0.0000    1.0051    0.0000 C   0  0  0  0  0  0  0  0  0  0  0  0
    0.0000    0.0000    0.0000 C   0  0  0  0  0  0  0  0  0  0  0  0
    0.8674   -0.4976    0.0000 N   0  0  0  0  0  0  0  0  0  0  0  0
    1.7348    0.0000    0.0000 C   0  0  0  0  0  0  0  0  0  0  0  0
    1.7348    1.0051    0.0000 C   0  0  0  0  0  0  0  0  0  0  0  0
    0.8674   -1.4976    0.0000 C   0  0  0  0  0  0  0  0  0  0  0  0
    1.7394   -1.9976    0.0000 C   0  0  0  0  0  0  0  0  0  0  0  0
    1.7395   -2.9977    0.0000 C   0  0  0  0  0  0  0  0  0  0  0  0
    0.8763   -3.5027    0.0000 C   0  0  0  0  0  0  0  0  0  0  0  0
    0.8807   -4.5027    0.0000 F   0  0  0  0  0  0  0  0  0  0  0  0
    0.0043   -3.0027    0.0000 C   0  0  0  0  0  0  0  0  0  0  0  0
   -0.0046   -1.9976    0.0000 C   0  0  0  0  0  0  0  0  0  0  0  0
  1  2  1  0  0  0  0
  2  3  1  0  0  0  0
  3  4  1  0  0  0  0
  4  5  1  0  0  0  0
  5 10  2  0  0  0  0
  5  6  1  0  0  0  0
  6  7  2  0  0  0  0
  7  8  1  0  0  0  0
  8  9  2  0  0  0  0
  9 10  1  0  0  0  0
 10 11  1  0  0  0  0
 11 12  2  0  0  0  0
 11 13  1  0  0  0  0
 13 14  1  0  0  0  0
 14 15  1  0  0  0  0
 15 20  2  0  0  0  0
 15 16  1  0  0  0  0
 16 17  2  0  0  0  0
 17 18  1  0  0  0  0
 18 19  2  0  0  0  0
 19 20  1  0  0  0  0
  2 21  1  0  0  0  0
 21 22  1  0  0  0  0
 22 27  1  0  0  0  0
 22 23  1  0  0  0  0
 23 24  1  0  0  0  0
 24 25  1  0  0  0  0
 25 26  1  0  0  0  0
 26 27  1  0  0  0  0
 25 28  1  0  0  0  0
 28 34  2  0  0  0  0
 28 29  1  0  0  0  0
 29 30  2  0  0  0  0
 30 31  1  0  0  0  0
 31 32  1  0  0  0  0
 31 33  2  0  0  0  0
 33 34  1  0  0  0  0
M  END
> <ID>
153168

$$$$
243963
  -OEChem-05171416412D

 34 37  0     1  0  0  0  0  0999 V2000
   -0.8647    2.5126    0.0000 O   0  0  0  0  0  0  0  0  0  0  0  0
    0.0014    3.0126    0.0000 C   0  0  3  0  0  0  0  0  0  0  0  0
    0.0014    4.0126    0.0000 C   0  0  0  0  0  0  0  0  0  0  0  0
   -0.8647    4.5126    0.0000 O   0  0  0  0  0  0  0  0  0  0  0  0
   -0.8647    5.5126    0.0000 C   0  0  0  0  0  0  0  0  0  0  0  0
   -1.7300    6.0139    0.0000 C   0  0  0  0  0  0  0  0  0  0  0  0
   -1.7343    7.0139    0.0000 C   0  0  0  0  0  0  0  0  0  0  0  0
   -0.8645    7.5178    0.0000 C   0  0  0  0  0  0  0  0  0  0  0  0
    0.0096    7.0216    0.0000 C   0  0  0  0  0  0  0  0  0  0  0  0
    0.0051    6.0165    0.0000 C   0  0  0  0  0  0  0  0  0  0  0  0
    0.8704    5.5152    0.0000 C   0  0  0  0  0  0  0  0  0  0  0  0
    0.8689    4.5152    0.0000 O   0  0  0  0  0  0  0  0  0  0  0  0
    1.7372    6.0139    0.0000 C   0  0  0  0  0  0  0  0  0  0  0  0
    2.6025    5.5126    0.0000 C   0  0  0  0  0  0  0  0  0  0  0  0
    3.4692    6.0113    0.0000 C   0  0  0  0  0  0  0  0  0  0  0  0
    3.4678    7.0165    0.0000 C   0  0  0  0  0  0  0  0  0  0  0  0
    4.3346    7.5152    0.0000 C   0  0  0  0  0  0  0  0  0  0  0  0
    5.2028    7.0190    0.0000 C   0  0  0  0  0  0  0  0  0  0  0  0
    5.2042    6.0138    0.0000 C   0  0  0  0  0  0  0  0  0  0  0  0
    4.3375    5.5048    0.0000 C   0  0  0  0  0  0  0  0  0  0  0  0
    0.8674    2.5126    0.0000 C   0  0  0  0  0  0  0  0  0  0  0  0
    0.8674    1.5126    0.0000 N   0  0  0  0  0  0  0  0  0  0  0  0
    0.0000    1.0051    0.0000 C   0  0  0  0  0  0  0  0  0  0  0  0
    0.0000    0.0000    0.0000 C   0  0  0  0  0  0  0  0  0  0  0  0
    0.8674   -0.4976    0.0000 N   0  0  0  0  0  0  0  0  0  0  0  0
    0.8674   -1.4976    0.0000 C   0  0  0  0  0  0  0  0  0  0  0  0
    1.7334   -1.9976    0.0000 C   0  0  0  0  0  0  0  0  0  0  0  0
    2.6025   -1.4924    0.0000 C   0  0  0  0  0  0  0  0  0  0  0  0
    3.4685   -1.9924    0.0000 C   0  0  0  0  0  0  0  0  0  0  0  0
    3.4744   -2.9924    0.0000 C   0  0  0  0  0  0  0  0  0  0  0  0
    2.6054   -3.4976    0.0000 C   0  0  0  0  0  0  0  0  0  0  0  0
    1.7305   -3.0027    0.0000 C   0  0  0  0  0  0  0  0  0  0  0  0
    1.7348    0.0000    0.0000 C   0  0  0  0  0  0  0  0  0  0  0  0
    1.7348    1.0051    0.0000 C   0  0  0  0  0  0  0  0  0  0  0  0
  1  2  1  0  0  0  0
  2  3  1  0  0  0  0
  3  4  1  0  0  0  0
  4  5  1  0  0  0  0
  5 10  2  0  0  0  0
  5  6  1  0  0  0  0
  6  7  2  0  0  0  0
  7  8  1  0  0  0  0
  8  9  2  0  0  0  0
  9 10  1  0  0  0  0
 10 11  1  0  0  0  0
 11 12  2  0  0  0  0
 11 13  1  0  0  0  0
 13 14  1  0  0  0  0
 14 15  1  0  0  0  0
 15 20  2  0  0  0  0
 15 16  1  0  0  0  0
 16 17  2  0  0  0  0
 17 18  1  0  0  0  0
 18 19  2  0  0  0  0
 19 20  1  0  0  0  0
  2 21  1  0  0  0  0
 21 22  1  0  0  0  0
 22 34  1  0  0  0  0
 22 23  1  0  0  0  0
 23 24  1  0  0  0  0
 24 25  1  0  0  0  0
 25 26  1  0  0  0  0
 26 27  1  0  0  0  0
 27 32  2  0  0  0  0
 27 28  1  0  0  0  0
 28 29  2  0  0  0  0
 29 30  1  0  0  0  0
 30 31  2  0  0  0  0
 31 32  1  0  0  0  0
 25 33  1  0  0  0  0
 33 34  1  0  0  0  0
M  END
> <ID>
243963

$$$$
153167
  -OEChem-05171416412D

 34 37  0     1  0  0  0  0  0999 V2000
   -0.8699    2.5113    0.0000 C   0  0  0  0  0  0  0  0  0  0  0  0
   -0.0046    3.0126    0.0000 C   0  0  0  0  0  0  0  0  0  0  0  0
   -0.0047    4.0127    0.0000 C   0  0  0  0  0  0  0  0  0  0  0  0
    0.8585    4.5177    0.0000 C   0  0  0  0  0  0  0  0  0  0  0  0
    1.7305    4.0177    0.0000 C   0  0  0  0  0  0  0  0  0  0  0  0
    1.7394    3.0126    0.0000 C   0  0  0  0  0  0  0  0  0  0  0  0
    0.8674    2.5126    0.0000 C   0  0  0  0  0  0  0  0  0  0  0  0
    0.8674    1.5126    0.0000 N   0  0  0  0  0  0  0  0  0  0  0  0
    0.0000    1.0051    0.0000 C   0  0  0  0  0  0  0  0  0  0  0  0
    0.0000    0.0000    0.0000 C   0  0  0  0  0  0  0  0  0  0  0  0
    0.8674   -0.4976    0.0000 N   0  0  0  0  0  0  0  0  0  0  0  0
    0.8674   -1.4976    0.0000 C   0  0  0  0  0  0  0  0  0  0  0  0
    1.7334   -1.9976    0.0000 C   0  0  3  0  0  0  0  0  0  0  0  0
    2.5995   -1.4976    0.0000 O   0  0  0  0  0  0  0  0  0  0  0  0
    1.7334   -2.9976    0.0000 C   0  0  0  0  0  0  0  0  0  0  0  0
    2.5995   -3.4976    0.0000 O   0  0  0  0  0  0  0  0  0  0  0  0
    2.5995   -4.4976    0.0000 C   0  0  0  0  0  0  0  0  0  0  0  0
    3.4648   -4.9989    0.0000 C   0  0  0  0  0  0  0  0  0  0  0  0
    3.4691   -5.9989    0.0000 C   0  0  0  0  0  0  0  0  0  0  0  0
    2.5993   -6.5028    0.0000 C   0  0  0  0  0  0  0  0  0  0  0  0
    1.7252   -6.0066    0.0000 C   0  0  0  0  0  0  0  0  0  0  0  0
    1.7297   -5.0015    0.0000 C   0  0  0  0  0  0  0  0  0  0  0  0
    0.8644   -4.5002    0.0000 C   0  0  0  0  0  0  0  0  0  0  0  0
    0.8659   -3.5002    0.0000 O   0  0  0  0  0  0  0  0  0  0  0  0
   -0.0024   -4.9989    0.0000 C   0  0  0  0  0  0  0  0  0  0  0  0
   -0.8677   -4.4976    0.0000 C   0  0  0  0  0  0  0  0  0  0  0  0
   -1.7344   -4.9963    0.0000 C   0  0  0  0  0  0  0  0  0  0  0  0
   -1.7330   -6.0015    0.0000 C   0  0  0  0  0  0  0  0  0  0  0  0
   -2.5998   -6.5002    0.0000 C   0  0  0  0  0  0  0  0  0  0  0  0
   -3.4680   -6.0040    0.0000 C   0  0  0  0  0  0  0  0  0  0  0  0
   -3.4694   -4.9988    0.0000 C   0  0  0  0  0  0  0  0  0  0  0  0
   -2.6027   -4.4898    0.0000 C   0  0  0  0  0  0  0  0  0  0  0  0
    1.7348    0.0000    0.0000 C   0  0  0  0  0  0  0  0  0  0  0  0
    1.7348    1.0051    0.0000 C   0  0  0  0  0  0  0  0  0  0  0  0
  1  2  1  0  0  0  0
  2  7  2  0  0  0  0
  2  3  1  0  0  0  0
  3  4  2  0  0  0  0
  4  5  1  0  0  0  0
  5  6  2  0  0  0  0
  6  7  1  0  0  0  0
  7  8  1  0  0  0  0
  8 34  1  0  0  0  0
  8  9  1  0  0  0  0
  9 10  1  0  0  0  0
 10 11  1  0  0  0  0
 11 12  1  0  0  0  0
 12 13  1  0  0  0  0
 13 14  1  0  0  0  0
 13 15  1  0  0  0  0
 15 16  1  0  0  0  0
 16 17  1  0  0  0  0
 17 22  2  0  0  0  0
 17 18  1  0  0  0  0
 18 19  2  0  0  0  0
 19 20  1  0  0  0  0
 20 21  2  0  0  0  0
 21 22  1  0  0  0  0
 22 23  1  0  0  0  0
 23 24  2  0  0  0  0
 23 25  1  0  0  0  0
 25 26  1  0  0  0  0
 26 27  1  0  0  0  0
 27 32  2  0  0  0  0
 27 28  1  0  0  0  0
 28 29  2  0  0  0  0
 29 30  1  0  0  0  0
 30 31  2  0  0  0  0
 31 32  1  0  0  0  0
 11 33  1  0  0  0  0
 33 34  1  0  0  0  0
M  END
> <ID>
153167

$$$$
153604
  -OEChem-05171416412D

 35 38  0     1  0  0  0  0  0999 V2000
    1.7399    6.0139    0.0000 C   0  0  0  0  0  0  0  0  0  0  0  0
    0.8717    5.5177    0.0000 O   0  0  0  0  0  0  0  0  0  0  0  0
    0.8673    4.5178    0.0000 C   0  0  0  0  0  0  0  0  0  0  0  0
    1.7371    4.0139    0.0000 C   0  0  0  0  0  0  0  0  0  0  0  0
    1.7327    3.0139    0.0000 C   0  0  0  0  0  0  0  0  0  0  0  0
    0.8674    2.5126    0.0000 C   0  0  0  0  0  0  0  0  0  0  0  0
   -0.0024    3.0165    0.0000 C   0  0  0  0  0  0  0  0  0  0  0  0
   -0.0069    4.0216    0.0000 C   0  0  0  0  0  0  0  0  0  0  0  0
    0.8674    1.5126    0.0000 N   0  0  0  0  0  0  0  0  0  0  0  0
    0.0000    1.0051    0.0000 C   0  0  0  0  0  0  0  0  0  0  0  0
    0.0000    0.0000    0.0000 C   0  0  0  0  0  0  0  0  0  0  0  0
    0.8674   -0.4976    0.0000 N   0  0  0  0  0  0  0  0  0  0  0  0
    0.8674   -1.4976    0.0000 C   0  0  0  0  0  0  0  0  0  0  0  0
    1.7334   -1.9976    0.0000 C   0  0  3  0  0  0  0  0  0  0  0  0
    2.5995   -1.4976    0.0000 O   0  0  0  0  0  0  0  0  0  0  0  0
    1.7334   -2.9976    0.0000 C   0  0  0  0  0  0  0  0  0  0  0  0
    2.5995   -3.4976    0.0000 O   0  0  0  0  0  0  0  0  0  0  0  0
    2.5995   -4.4976    0.0000 C   0  0  0  0  0  0  0  0  0  0  0  0
    3.4648   -4.9989    0.0000 C   0  0  0  0  0  0  0  0  0  0  0  0
    3.4691   -5.9989    0.0000 C   0  0  0  0  0  0  0  0  0  0  0  0
    2.5993   -6.5028    0.0000 C   0  0  0  0  0  0  0  0  0  0  0  0
    1.7252   -6.0066    0.0000 C   0  0  0  0  0  0  0  0  0  0  0  0
    1.7297   -5.0015    0.0000 C   0  0  0  0  0  0  0  0  0  0  0  0
    0.8644   -4.5002    0.0000 C   0  0  0  0  0  0  0  0  0  0  0  0
    0.8659   -3.5002    0.0000 O   0  0  0  0  0  0  0  0  0  0  0  0
   -0.0024   -4.9989    0.0000 C   0  0  0  0  0  0  0  0  0  0  0  0
   -0.8677   -4.4976    0.0000 C   0  0  0  0  0  0  0  0  0  0  0  0
   -1.7344   -4.9963    0.0000 C   0  0  0  0  0  0  0  0  0  0  0  0
   -1.7330   -6.0015    0.0000 C   0  0  0  0  0  0  0  0  0  0  0  0
   -2.5998   -6.5002    0.0000 C   0  0  0  0  0  0  0  0  0  0  0  0
   -3.4680   -6.0040    0.0000 C   0  0  0  0  0  0  0  0  0  0  0  0
   -3.4694   -4.9988    0.0000 C   0  0  0  0  0  0  0  0  0  0  0  0
   -2.6027   -4.4898    0.0000 C   0  0  0  0  0  0  0  0  0  0  0  0
    1.7348    0.0000    0.0000 C   0  0  0  0  0  0  0  0  0  0  0  0
    1.7348    1.0051    0.0000 C   0  0  0  0  0  0  0  0  0  0  0  0
  1  2  1  0  0  0  0
  2  3  1  0  0  0  0
  3  8  2  0  0  0  0
  3  4  1  0  0  0  0
  4  5  2  0  0  0  0
  5  6  1  0  0  0  0
  6  7  2  0  0  0  0
  7  8  1  0  0  0  0
  6  9  1  0  0  0  0
  9 35  1  0  0  0  0
  9 10  1  0  0  0  0
 10 11  1  0  0  0  0
 11 12  1  0  0  0  0
 12 13  1  0  0  0  0
 13 14  1  0  0  0  0
 14 15  1  0  0  0  0
 14 16  1  0  0  0  0
 16 17  1  0  0  0  0
 17 18  1  0  0  0  0
 18 23  2  0  0  0  0
 18 19  1  0  0  0  0
 19 20  2  0  0  0  0
 20 21  1  0  0  0  0
 21 22  2  0  0  0  0
 22 23  1  0  0  0  0
 23 24  1  0  0  0  0
 24 25  2  0  0  0  0
 24 26  1  0  0  0  0
 26 27  1  0  0  0  0
 27 28  1  0  0  0  0
 28 33  2  0  0  0  0
 28 29  1  0  0  0  0
 29 30  2  0  0  0  0
 30 31  1  0  0  0  0
 31 32  2  0  0  0  0
 32 33  1  0  0  0  0
 12 34  1  0  0  0  0
 34 35  1  0  0  0  0
M  END
> <ID>
153604

$$$$
244049
  -OEChem-05171416412D

 35 38  0     1  0  0  0  0  0999 V2000
    3.4625    4.0279    0.0000 C   0  0  0  0  0  0  0  0  0  0  0  0
    2.5935    4.5228    0.0000 O   0  0  0  0  0  0  0  0  0  0  0  0
    1.7305    4.0177    0.0000 C   0  0  0  0  0  0  0  0  0  0  0  0
    0.8585    4.5177    0.0000 C   0  0  0  0  0  0  0  0  0  0  0  0
   -0.0047    4.0127    0.0000 C   0  0  0  0  0  0  0  0  0  0  0  0
   -0.0046    3.0126    0.0000 C   0  0  0  0  0  0  0  0  0  0  0  0
    0.8674    2.5126    0.0000 C   0  0  0  0  0  0  0  0  0  0  0  0
    1.7394    3.0126    0.0000 C   0  0  0  0  0  0  0  0  0  0  0  0
    0.8674    1.5126    0.0000 N   0  0  0  0  0  0  0  0  0  0  0  0
    0.0000    1.0051    0.0000 C   0  0  0  0  0  0  0  0  0  0  0  0
    0.0000    0.0000    0.0000 C   0  0  0  0  0  0  0  0  0  0  0  0
    0.8674   -0.4976    0.0000 N   0  0  0  0  0  0  0  0  0  0  0  0
    0.8674   -1.4976    0.0000 C   0  0  0  0  0  0  0  0  0  0  0  0
    1.7334   -1.9976    0.0000 C   0  0  3  0  0  0  0  0  0  0  0  0
    2.5995   -1.4976    0.0000 O   0  0  0  0  0  0  0  0  0  0  0  0
    1.7334   -2.9976    0.0000 C   0  0  0  0  0  0  0  0  0  0  0  0
    2.5995   -3.4976    0.0000 O   0  0  0  0  0  0  0  0  0  0  0  0
    2.5995   -4.4976    0.0000 C   0  0  0  0  0  0  0  0  0  0  0  0
    3.4648   -4.9989    0.0000 C   0  0  0  0  0  0  0  0  0  0  0  0
    3.4691   -5.9989    0.0000 C   0  0  0  0  0  0  0  0  0  0  0  0
    2.5993   -6.5028    0.0000 C   0  0  0  0  0  0  0  0  0  0  0  0
    1.7252   -6.0066    0.0000 C   0  0  0  0  0  0  0  0  0  0  0  0
    1.7297   -5.0015    0.0000 C   0  0  0  0  0  0  0  0  0  0  0  0
    0.8644   -4.5002    0.0000 C   0  0  0  0  0  0  0  0  0  0  0  0
    0.8659   -3.5002    0.0000 O   0  0  0  0  0  0  0  0  0  0  0  0
   -0.0024   -4.9989    0.0000 C   0  0  0  0  0  0  0  0  0  0  0  0
   -0.8677   -4.4976    0.0000 C   0  0  0  0  0  0  0  0  0  0  0  0
   -1.7344   -4.9963    0.0000 C   0  0  0  0  0  0  0  0  0  0  0  0
   -1.7330   -6.0015    0.0000 C   0  0  0  0  0  0  0  0  0  0  0  0
   -2.5998   -6.5002    0.0000 C   0  0  0  0  0  0  0  0  0  0  0  0
   -3.4680   -6.0040    0.0000 C   0  0  0  0  0  0  0  0  0  0  0  0
   -3.4694   -4.9988    0.0000 C   0  0  0  0  0  0  0  0  0  0  0  0
   -2.6027   -4.4898    0.0000 C   0  0  0  0  0  0  0  0  0  0  0  0
    1.7348    0.0000    0.0000 C   0  0  0  0  0  0  0  0  0  0  0  0
    1.7348    1.0051    0.0000 C   0  0  0  0  0  0  0  0  0  0  0  0
  1  2  1  0  0  0  0
  2  3  1  0  0  0  0
  3  8  2  0  0  0  0
  3  4  1  0  0  0  0
  4  5  2  0  0  0  0
  5  6  1  0  0  0  0
  6  7  2  0  0  0  0
  7  8  1  0  0  0  0
  7  9  1  0  0  0  0
  9 35  1  0  0  0  0
  9 10  1  0  0  0  0
 10 11  1  0  0  0  0
 11 12  1  0  0  0  0
 12 13  1  0  0  0  0
 13 14  1  0  0  0  0
 14 15  1  0  0  0  0
 14 16  1  0  0  0  0
 16 17  1  0  0  0  0
 17 18  1  0  0  0  0
 18 23  2  0  0  0  0
 18 19  1  0  0  0  0
 19 20  2  0  0  0  0
 20 21  1  0  0  0  0
 21 22  2  0  0  0  0
 22 23  1  0  0  0  0
 23 24  1  0  0  0  0
 24 25  2  0  0  0  0
 24 26  1  0  0  0  0
 26 27  1  0  0  0  0
 27 28  1  0  0  0  0
 28 33  2  0  0  0  0
 28 29  1  0  0  0  0
 29 30  2  0  0  0  0
 30 31  1  0  0  0  0
 31 32  2  0  0  0  0
 32 33  1  0  0  0  0
 12 34  1  0  0  0  0
 34 35  1  0  0  0  0
M  END
> <ID>
244049

$$$$
244190
  -OEChem-05171416412D

 35 38  0     1  0  0  0  0  0999 V2000
   -1.7367    3.0100    0.0000 C   0  0  0  0  0  0  0  0  0  0  0  0
   -0.8699    2.5113    0.0000 O   0  0  0  0  0  0  0  0  0  0  0  0
   -0.0046    3.0126    0.0000 C   0  0  0  0  0  0  0  0  0  0  0  0
   -0.0047    4.0127    0.0000 C   0  0  0  0  0  0  0  0  0  0  0  0
    0.8585    4.5177    0.0000 C   0  0  0  0  0  0  0  0  0  0  0  0
    1.7305    4.0177    0.0000 C   0  0  0  0  0  0  0  0  0  0  0  0
    1.7394    3.0126    0.0000 C   0  0  0  0  0  0  0  0  0  0  0  0
    0.8674    2.5126    0.0000 C   0  0  0  0  0  0  0  0  0  0  0  0
    0.8674    1.5126    0.0000 N   0  0  0  0  0  0  0  0  0  0  0  0
    0.0000    1.0051    0.0000 C   0  0  0  0  0  0  0  0  0  0  0  0
    0.0000    0.0000    0.0000 C   0  0  0  0  0  0  0  0  0  0  0  0
    0.8674   -0.4976    0.0000 N   0  0  0  0  0  0  0  0  0  0  0  0
    0.8674   -1.4976    0.0000 C   0  0  0  0  0  0  0  0  0  0  0  0
    1.7334   -1.9976    0.0000 C   0  0  3  0  0  0  0  0  0  0  0  0
    2.5995   -1.4976    0.0000 O   0  0  0  0  0  0  0  0  0  0  0  0
    1.7334   -2.9976    0.0000 C   0  0  0  0  0  0  0  0  0  0  0  0
    2.5995   -3.4976    0.0000 O   0  0  0  0  0  0  0  0  0  0  0  0
    2.5995   -4.4976    0.0000 C   0  0  0  0  0  0  0  0  0  0  0  0
    3.4648   -4.9989    0.0000 C   0  0  0  0  0  0  0  0  0  0  0  0
    3.4691   -5.9989    0.0000 C   0  0  0  0  0  0  0  0  0  0  0  0
    2.5993   -6.5028    0.0000 C   0  0  0  0  0  0  0  0  0  0  0  0
    1.7252   -6.0066    0.0000 C   0  0  0  0  0  0  0  0  0  0  0  0
    1.7297   -5.0015    0.0000 C   0  0  0  0  0  0  0  0  0  0  0  0
    0.8644   -4.5002    0.0000 C   0  0  0  0  0  0  0  0  0  0  0  0
    0.8659   -3.5002    0.0000 O   0  0  0  0  0  0  0  0  0  0  0  0
   -0.0024   -4.9989    0.0000 C   0  0  0  0  0  0  0  0  0  0  0  0
   -0.8677   -4.4976    0.0000 C   0  0  0  0  0  0  0  0  0  0  0  0
   -1.7344   -4.9963    0.0000 C   0  0  0  0  0  0  0  0  0  0  0  0
   -1.7330   -6.0015    0.0000 C   0  0  0  0  0  0  0  0  0  0  0  0
   -2.5998   -6.5002    0.0000 C   0  0  0  0  0  0  0  0  0  0  0  0
   -3.4680   -6.0040    0.0000 C   0  0  0  0  0  0  0  0  0  0  0  0
   -3.4694   -4.9988    0.0000 C   0  0  0  0  0  0  0  0  0  0  0  0
   -2.6027   -4.4898    0.0000 C   0  0  0  0  0  0  0  0  0  0  0  0
    1.7348    0.0000    0.0000 C   0  0  0  0  0  0  0  0  0  0  0  0
    1.7348    1.0051    0.0000 C   0  0  0  0  0  0  0  0  0  0  0  0
  1  2  1  0  0  0  0
  2  3  1  0  0  0  0
  3  8  2  0  0  0  0
  3  4  1  0  0  0  0
  4  5  2  0  0  0  0
  5  6  1  0  0  0  0
  6  7  2  0  0  0  0
  7  8  1  0  0  0  0
  8  9  1  0  0  0  0
  9 35  1  0  0  0  0
  9 10  1  0  0  0  0
 10 11  1  0  0  0  0
 11 12  1  0  0  0  0
 12 13  1  0  0  0  0
 13 14  1  0  0  0  0
 14 15  1  0  0  0  0
 14 16  1  0  0  0  0
 16 17  1  0  0  0  0
 17 18  1  0  0  0  0
 18 23  2  0  0  0  0
 18 19  1  0  0  0  0
 19 20  2  0  0  0  0
 20 21  1  0  0  0  0
 21 22  2  0  0  0  0
 22 23  1  0  0  0  0
 23 24  1  0  0  0  0
 24 25  2  0  0  0  0
 24 26  1  0  0  0  0
 26 27  1  0  0  0  0
 27 28  1  0  0  0  0
 28 33  2  0  0  0  0
 28 29  1  0  0  0  0
 29 30  2  0  0  0  0
 30 31  1  0  0  0  0
 31 32  2  0  0  0  0
 32 33  1  0  0  0  0
 12 34  1  0  0  0  0
 34 35  1  0  0  0  0
M  END
> <ID>
244190

$$$$
244380
  -OEChem-05171416412D

 33 36  0     1  0  0  0  0  0999 V2000
   -0.8647    2.5126    0.0000 O   0  0  0  0  0  0  0  0  0  0  0  0
    0.0014    3.0126    0.0000 C   0  0  3  0  0  0  0  0  0  0  0  0
    0.0014    4.0126    0.0000 C   0  0  0  0  0  0  0  0  0  0  0  0
   -0.8647    4.5126    0.0000 O   0  0  0  0  0  0  0  0  0  0  0  0
   -0.8647    5.5126    0.0000 C   0  0  0  0  0  0  0  0  0  0  0  0
   -1.7300    6.0139    0.0000 C   0  0  0  0  0  0  0  0  0  0  0  0
   -1.7343    7.0139    0.0000 C   0  0  0  0  0  0  0  0  0  0  0  0
   -0.8645    7.5178    0.0000 C   0  0  0  0  0  0  0  0  0  0  0  0
    0.0096    7.0216    0.0000 C   0  0  0  0  0  0  0  0  0  0  0  0
    0.0051    6.0165    0.0000 C   0  0  0  0  0  0  0  0  0  0  0  0
    0.8704    5.5152    0.0000 C   0  0  0  0  0  0  0  0  0  0  0  0
    0.8689    4.5152    0.0000 O   0  0  0  0  0  0  0  0  0  0  0  0
    1.7372    6.0139    0.0000 C   0  0  0  0  0  0  0  0  0  0  0  0
    2.6025    5.5126    0.0000 C   0  0  0  0  0  0  0  0  0  0  0  0
    3.4692    6.0113    0.0000 C   0  0  0  0  0  0  0  0  0  0  0  0
    3.4678    7.0165    0.0000 C   0  0  0  0  0  0  0  0  0  0  0  0
    4.3346    7.5152    0.0000 C   0  0  0  0  0  0  0  0  0  0  0  0
    5.2028    7.0190    0.0000 C   0  0  0  0  0  0  0  0  0  0  0  0
    5.2042    6.0138    0.0000 C   0  0  0  0  0  0  0  0  0  0  0  0
    4.3375    5.5048    0.0000 C   0  0  0  0  0  0  0  0  0  0  0  0
    0.8674    2.5126    0.0000 C   0  0  0  0  0  0  0  0  0  0  0  0
    0.8674    1.5126    0.0000 N   0  0  0  0  0  0  0  0  0  0  0  0
    0.0000    1.0051    0.0000 C   0  0  0  0  0  0  0  0  0  0  0  0
    0.0000    0.0000    0.0000 C   0  0  0  0  0  0  0  0  0  0  0  0
    0.8674   -0.4976    0.0000 N   0  0  0  0  0  0  0  0  0  0  0  0
    1.7348    0.0000    0.0000 C   0  0  0  0  0  0  0  0  0  0  0  0
    1.7348    1.0051    0.0000 C   0  0  0  0  0  0  0  0  0  0  0  0
    0.8674   -1.4976    0.0000 C   0  0  0  0  0  0  0  0  0  0  0  0
    1.7394   -1.9976    0.0000 C   0  0  0  0  0  0  0  0  0  0  0  0
    1.7395   -2.9977    0.0000 C   0  0  0  0  0  0  0  0  0  0  0  0
    0.8763   -3.5027    0.0000 C   0  0  0  0  0  0  0  0  0  0  0  0
    0.0043   -3.0027    0.0000 C   0  0  0  0  0  0  0  0  0  0  0  0
   -0.0046   -1.9976    0.0000 C   0  0  0  0  0  0  0  0  0  0  0  0
  1  2  1  0  0  0  0
  2  3  1  0  0  0  0
  3  4  1  0  0  0  0
  4  5  1  0  0  0  0
  5 10  2  0  0  0  0
  5  6  1  0  0  0  0
  6  7  2  0  0  0  0
  7  8  1  0  0  0  0
  8  9  2  0  0  0  0
  9 10  1  0  0  0  0
 10 11  1  0  0  0  0
 11 12  2  0  0  0  0
 11 13  1  0  0  0  0
 13 14  1  0  0  0  0
 14 15  1  0  0  0  0
 15 20  2  0  0  0  0
 15 16  1  0  0  0  0
 16 17  2  0  0  0  0
 17 18  1  0  0  0  0
 18 19  2  0  0  0  0
 19 20  1  0  0  0  0
  2 21  1  0  0  0  0
 21 22  1  0  0  0  0
 22 27  1  0  0  0  0
 22 23  1  0  0  0  0
 23 24  1  0  0  0  0
 24 25  1  0  0  0  0
 25 26  1  0  0  0  0
 26 27  1  0  0  0  0
 25 28  1  0  0  0  0
 28 33  2  0  0  0  0
 28 29  1  0  0  0  0
 29 30  2  0  0  0  0
 30 31  1  0  0  0  0
 31 32  2  0  0  0  0
 32 33  1  0  0  0  0
M  END
> <ID>
244380

$$$$
152683
  -OEChem-05171416412D

 20 21  0     1  0  0  0  0  0999 V2000
   -4.3361    6.5078    0.0000 C   0  0  0  0  0  0  0  0  0  0  0  0
   -3.4693    6.0091    0.0000 C   0  0  0  0  0  0  0  0  0  0  0  0
   -3.4678    5.0091    0.0000 O   0  0  0  0  0  0  0  0  0  0  0  0
   -2.6041    6.5104    0.0000 C   0  0  0  0  0  0  0  0  0  0  0  0
   -2.6041    7.5105    0.0000 C   0  0  0  0  0  0  0  0  0  0  0  0
   -1.7410    8.0155    0.0000 C   0  0  0  0  0  0  0  0  0  0  0  0
   -0.8690    7.5155    0.0000 C   0  0  0  0  0  0  0  0  0  0  0  0
   -0.8601    6.5104    0.0000 C   0  0  0  0  0  0  0  0  0  0  0  0
   -1.7321    6.0104    0.0000 C   0  0  0  0  0  0  0  0  0  0  0  0
   -1.7321    5.0104    0.0000 O   0  0  0  0  0  0  0  0  0  0  0  0
   -0.8660    4.5104    0.0000 C   0  0  0  0  0  0  0  0  0  0  0  0
   -0.8660    3.5104    0.0000 C   0  0  3  0  0  0  0  0  0  0  0  0
   -1.7321    3.0104    0.0000 O   0  0  0  0  0  0  0  0  0  0  0  0
   -0.0000    3.0104    0.0000 C   0  0  0  0  0  0  0  0  0  0  0  0
   -0.0000    2.0104    0.0000 N   0  0  0  0  0  0  0  0  0  0  0  0
   -0.8675    1.5027    0.0000 C   0  0  0  0  0  0  0  0  0  0  0  0
   -0.8675    0.4975    0.0000 C   0  0  0  0  0  0  0  0  0  0  0  0
    0.0000    0.0000    0.0000 C   0  0  0  0  0  0  0  0  0  0  0  0
    0.8675    0.4975    0.0000 C   0  0  0  0  0  0  0  0  0  0  0  0
    0.8675    1.5027    0.0000 C   0  0  0  0  0  0  0  0  0  0  0  0
  1  2  1  0  0  0  0
  2  3  2  0  0  0  0
  2  4  1  0  0  0  0
  4  9  2  0  0  0  0
  4  5  1  0  0  0  0
  5  6  2  0  0  0  0
  6  7  1  0  0  0  0
  7  8  2  0  0  0  0
  8  9  1  0  0  0  0
  9 10  1  0  0  0  0
 10 11  1  0  0  0  0
 11 12  1  0  0  0  0
 12 13  1  0  0  0  0
 12 14  1  0  0  0  0
 14 15  1  0  0  0  0
 15 20  1  0  0  0  0
 15 16  1  0  0  0  0
 16 17  1  0  0  0  0
 17 18  1  0  0  0  0
 18 19  1  0  0  0  0
 19 20  1  0  0  0  0
M  END
> <ID>
152683

$$$$
243791
  -OEChem-05171416412D

 21 22  0     1  0  0  0  0  0999 V2000
   -4.3331    4.5078    0.0000 C   0  0  0  0  0  0  0  0  0  0  0  0
   -3.4678    5.0091    0.0000 C   0  0  0  0  0  0  0  0  0  0  0  0
   -3.4693    6.0091    0.0000 C   0  0  0  0  0  0  0  0  0  0  0  0
   -4.3361    6.5078    0.0000 O   0  0  0  0  0  0  0  0  0  0  0  0
   -2.6041    6.5104    0.0000 C   0  0  0  0  0  0  0  0  0  0  0  0
   -2.6041    7.5105    0.0000 C   0  0  0  0  0  0  0  0  0  0  0  0
   -1.7410    8.0155    0.0000 C   0  0  0  0  0  0  0  0  0  0  0  0
   -0.8690    7.5155    0.0000 C   0  0  0  0  0  0  0  0  0  0  0  0
   -0.8601    6.5104    0.0000 C   0  0  0  0  0  0  0  0  0  0  0  0
   -1.7321    6.0104    0.0000 C   0  0  0  0  0  0  0  0  0  0  0  0
   -1.7321    5.0104    0.0000 O   0  0  0  0  0  0  0  0  0  0  0  0
   -0.8660    4.5104    0.0000 C   0  0  0  0  0  0  0  0  0  0  0  0
   -0.8660    3.5104    0.0000 C   0  0  3  0  0  0  0  0  0  0  0  0
   -1.7321    3.0104    0.0000 O   0  0  0  0  0  0  0  0  0  0  0  0
   -0.0000    3.0104    0.0000 C   0  0  0  0  0  0  0  0  0  0  0  0
   -0.0000    2.0104    0.0000 N   0  0  0  0  0  0  0  0  0  0  0  0
   -0.8675    1.5027    0.0000 C   0  0  0  0  0  0  0  0  0  0  0  0
   -0.8675    0.4975    0.0000 C   0  0  0  0  0  0  0  0  0  0  0  0
    0.0000    0.0000    0.0000 C   0  0  0  0  0  0  0  0  0  0  0  0
    0.8675    0.4975    0.0000 C   0  0  0  0  0  0  0  0  0  0  0  0
    0.8675    1.5027    0.0000 C   0  0  0  0  0  0  0  0  0  0  0  0
  1  2  1  0  0  0  0
  2  3  1  0  0  0  0
  3  4  2  0  0  0  0
  3  5  1  0  0  0  0
  5 10  2  0  0  0  0
  5  6  1  0  0  0  0
  6  7  2  0  0  0  0
  7  8  1  0  0  0  0
  8  9  2  0  0  0  0
  9 10  1  0  0  0  0
 10 11  1  0  0  0  0
 11 12  1  0  0  0  0
 12 13  1  0  0  0  0
 13 14  1  0  0  0  0
 13 15  1  0  0  0  0
 15 16  1  0  0  0  0
 16 21  1  0  0  0  0
 16 17  1  0  0  0  0
 17 18  1  0  0  0  0
 18 19  1  0  0  0  0
 19 20  1  0  0  0  0
 20 21  1  0  0  0  0
M  END
> <ID>
243791

$$$$
153601
  -OEChem-05171416412D

 28 29  0     1  0  0  0  0  0999 V2000
    6.9282   -2.0075    0.0000 C   0  0  0  0  0  0  0  0  0  0  0  0
    6.0629   -1.5063    0.0000 C   0  0  0  0  0  0  0  0  0  0  0  0
    5.1962   -2.0050    0.0000 C   0  0  0  0  0  0  0  0  0  0  0  0
    6.0644   -0.5063    0.0000 N   0  0  0  0  0  0  0  0  0  0  0  0
    5.1991   -0.0050    0.0000 C   0  0  0  0  0  0  0  0  0  0  0  0
    4.3323   -0.5038    0.0000 C   0  0  3  0  0  0  0  0  0  0  0  0
    4.3309   -1.5038    0.0000 O   0  0  0  0  0  0  0  0  0  0  0  0
    3.4670   -0.0025    0.0000 C   0  0  0  0  0  0  0  0  0  0  0  0
    2.6003   -0.5013    0.0000 O   0  0  0  0  0  0  0  0  0  0  0  0
    1.7350    0.0000    0.0000 C   0  0  0  0  0  0  0  0  0  0  0  0
    0.8675   -0.4975    0.0000 C   0  0  0  0  0  0  0  0  0  0  0  0
    0.0000    0.0000    0.0000 C   0  0  0  0  0  0  0  0  0  0  0  0
   -0.0000    1.0052    0.0000 C   0  0  0  0  0  0  0  0  0  0  0  0
    0.8675    1.5129    0.0000 C   0  0  0  0  0  0  0  0  0  0  0  0
    1.7350    1.0052    0.0000 C   0  0  0  0  0  0  0  0  0  0  0  0
    2.6025    1.5026    0.0000 C   0  0  0  0  0  0  0  0  0  0  0  0
    3.4670    1.0001    0.0000 O   0  0  0  0  0  0  0  0  0  0  0  0
    2.6054    2.5026    0.0000 C   0  0  0  0  0  0  0  0  0  0  0  0
    3.4729    3.0001    0.0000 C   0  0  0  0  0  0  0  0  0  0  0  0
    3.4759    4.0001    0.0000 C   0  0  0  0  0  0  0  0  0  0  0  0
    2.6054    4.5027    0.0000 C   0  0  0  0  0  0  0  0  0  0  0  0
    2.6083    5.5027    0.0000 C   0  0  0  0  0  0  0  0  0  0  0  0
    3.4729    6.0052    0.0000 C   0  0  0  0  0  0  0  0  0  0  0  0
    4.3434    5.5026    0.0000 C   0  0  0  0  0  0  0  0  0  0  0  0
    4.3493    4.4975    0.0000 C   0  0  0  0  0  0  0  0  0  0  0  0
    6.9311   -0.0075    0.0000 C   0  0  0  0  0  0  0  0  0  0  0  0
    6.9326    0.9925    0.0000 C   0  0  0  0  0  0  0  0  0  0  0  0
    7.7964   -0.5088    0.0000 C   0  0  0  0  0  0  0  0  0  0  0  0
  1  2  1  0  0  0  0
  2  3  1  0  0  0  0
  2  4  1  0  0  0  0
  4  5  1  0  0  0  0
  5  6  1  0  0  0  0
  6  7  1  0  0  0  0
  6  8  1  0  0  0  0
  8  9  1  0  0  0  0
  9 10  1  0  0  0  0
 10 15  2  0  0  0  0
 10 11  1  0  0  0  0
 11 12  2  0  0  0  0
 12 13  1  0  0  0  0
 13 14  2  0  0  0  0
 14 15  1  0  0  0  0
 15 16  1  0  0  0  0
 16 17  2  0  0  0  0
 16 18  1  0  0  0  0
 18 19  1  0  0  0  0
 19 20  1  0  0  0  0
 20 25  2  0  0  0  0
 20 21  1  0  0  0  0
 21 22  2  0  0  0  0
 22 23  1  0  0  0  0
 23 24  2  0  0  0  0
 24 25  1  0  0  0  0
  4 26  1  0  0  0  0
 26 27  1  0  0  0  0
 26 28  1  0  0  0  0
M  END
> <ID>
153601

$$$$
153570
  -OEChem-05171416412D

 27 29  0     1  0  0  0  0  0999 V2000
   -1.7321    3.0104    0.0000 O   0  0  0  0  0  0  0  0  0  0  0  0
   -0.8660    3.5104    0.0000 C   0  0  3  0  0  0  0  0  0  0  0  0
   -0.8660    4.5104    0.0000 C   0  0  0  0  0  0  0  0  0  0  0  0
   -1.7321    5.0104    0.0000 O   0  0  0  0  0  0  0  0  0  0  0  0
   -1.7321    6.0104    0.0000 C   0  0  0  0  0  0  0  0  0  0  0  0
   -2.5974    6.5117    0.0000 C   0  0  0  0  0  0  0  0  0  0  0  0
   -2.6017    7.5117    0.0000 C   0  0  0  0  0  0  0  0  0  0  0  0
   -1.7319    8.0156    0.0000 C   0  0  0  0  0  0  0  0  0  0  0  0
   -0.8578    7.5194    0.0000 C   0  0  0  0  0  0  0  0  0  0  0  0
   -0.8623    6.5143    0.0000 C   0  0  0  0  0  0  0  0  0  0  0  0
    0.0030    6.0130    0.0000 C   0  0  0  0  0  0  0  0  0  0  0  0
    0.0015    5.0130    0.0000 O   0  0  0  0  0  0  0  0  0  0  0  0
    0.8698    6.5117    0.0000 C   0  0  0  0  0  0  0  0  0  0  0  0
    1.7351    6.0104    0.0000 C   0  0  0  0  0  0  0  0  0  0  0  0
    2.6018    6.5091    0.0000 C   0  0  0  0  0  0  0  0  0  0  0  0
    2.6004    7.5143    0.0000 C   0  0  0  0  0  0  0  0  0  0  0  0
    3.4672    8.0130    0.0000 C   0  0  0  0  0  0  0  0  0  0  0  0
    4.3354    7.5168    0.0000 C   0  0  0  0  0  0  0  0  0  0  0  0
    4.3368    6.5116    0.0000 C   0  0  0  0  0  0  0  0  0  0  0  0
    3.4701    6.0026    0.0000 C   0  0  0  0  0  0  0  0  0  0  0  0
   -0.0000    3.0104    0.0000 C   0  0  0  0  0  0  0  0  0  0  0  0
   -0.0000    2.0104    0.0000 N   0  0  0  0  0  0  0  0  0  0  0  0
   -0.8675    1.5027    0.0000 C   0  0  0  0  0  0  0  0  0  0  0  0
   -0.8675    0.4975    0.0000 C   0  0  0  0  0  0  0  0  0  0  0  0
    0.0000    0.0000    0.0000 C   0  0  0  0  0  0  0  0  0  0  0  0
    0.8675    0.4975    0.0000 C   0  0  0  0  0  0  0  0  0  0  0  0
    0.8675    1.5027    0.0000 C   0  0  0  0  0  0  0  0  0  0  0  0
  1  2  1  0  0  0  0
  2  3  1  0  0  0  0
  3  4  1  0  0  0  0
  4  5  1  0  0  0  0
  5 10  2  0  0  0  0
  5  6  1  0  0  0  0
  6  7  2  0  0  0  0
  7  8  1  0  0  0  0
  8  9  2  0  0  0  0
  9 10  1  0  0  0  0
 10 11  1  0  0  0  0
 11 12  2  0  0  0  0
 11 13  1  0  0  0  0
 13 14  1  0  0  0  0
 14 15  1  0  0  0  0
 15 20  2  0  0  0  0
 15 16  1  0  0  0  0
 16 17  2  0  0  0  0
 17 18  1  0  0  0  0
 18 19  2  0  0  0  0
 19 20  1  0  0  0  0
  2 21  1  0  0  0  0
 21 22  1  0  0  0  0
 22 27  1  0  0  0  0
 22 23  1  0  0  0  0
 23 24  1  0  0  0  0
 24 25  1  0  0  0  0
 25 26  1  0  0  0  0
 26 27  1  0  0  0  0
M  END
> <ID>
153570

$$$$
153502
  -OEChem-05171416412D

 26 27  0     1  0  0  0  0  0999 V2000
    7.7964   -0.5088    0.0000 C   0  0  0  0  0  0  0  0  0  0  0  0
    6.9311   -0.0075    0.0000 C   0  0  0  0  0  0  0  0  0  0  0  0
    6.0644   -0.5063    0.0000 N   0  0  0  0  0  0  0  0  0  0  0  0
    6.0629   -1.5063    0.0000 C   0  0  0  0  0  0  0  0  0  0  0  0
    6.9282   -2.0075    0.0000 C   0  0  0  0  0  0  0  0  0  0  0  0
    5.1991   -0.0050    0.0000 C   0  0  0  0  0  0  0  0  0  0  0  0
    4.3323   -0.5038    0.0000 C   0  0  3  0  0  0  0  0  0  0  0  0
    4.3309   -1.5038    0.0000 O   0  0  0  0  0  0  0  0  0  0  0  0
    3.4670   -0.0025    0.0000 C   0  0  0  0  0  0  0  0  0  0  0  0
    2.6003   -0.5013    0.0000 O   0  0  0  0  0  0  0  0  0  0  0  0
    1.7350    0.0000    0.0000 C   0  0  0  0  0  0  0  0  0  0  0  0
    0.8675   -0.4975    0.0000 C   0  0  0  0  0  0  0  0  0  0  0  0
    0.0000    0.0000    0.0000 C   0  0  0  0  0  0  0  0  0  0  0  0
   -0.0000    1.0052    0.0000 C   0  0  0  0  0  0  0  0  0  0  0  0
    0.8675    1.5129    0.0000 C   0  0  0  0  0  0  0  0  0  0  0  0
    1.7350    1.0052    0.0000 C   0  0  0  0  0  0  0  0  0  0  0  0
    2.6025    1.5026    0.0000 C   0  0  0  0  0  0  0  0  0  0  0  0
    3.4670    1.0001    0.0000 O   0  0  0  0  0  0  0  0  0  0  0  0
    2.6054    2.5026    0.0000 C   0  0  0  0  0  0  0  0  0  0  0  0
    3.4729    3.0001    0.0000 C   0  0  0  0  0  0  0  0  0  0  0  0
    3.4759    4.0001    0.0000 C   0  0  0  0  0  0  0  0  0  0  0  0
    2.6054    4.5027    0.0000 C   0  0  0  0  0  0  0  0  0  0  0  0
    2.6083    5.5027    0.0000 C   0  0  0  0  0  0  0  0  0  0  0  0
    3.4729    6.0052    0.0000 C   0  0  0  0  0  0  0  0  0  0  0  0
    4.3434    5.5026    0.0000 C   0  0  0  0  0  0  0  0  0  0  0  0
    4.3493    4.4975    0.0000 C   0  0  0  0  0  0  0  0  0  0  0  0
  1  2  1  0  0  0  0
  2  3  1  0  0  0  0
  3  4  1  0  0  0  0
  4  5  1  0  0  0  0
  3  6  1  0  0  0  0
  6  7  1  0  0  0  0
  7  8  1  0  0  0  0
  7  9  1  0  0  0  0
  9 10  1  0  0  0  0
 10 11  1  0  0  0  0
 11 16  2  0  0  0  0
 11 12  1  0  0  0  0
 12 13  2  0  0  0  0
 13 14  1  0  0  0  0
 14 15  2  0  0  0  0
 15 16  1  0  0  0  0
 16 17  1  0  0  0  0
 17 18  2  0  0  0  0
 17 19  1  0  0  0  0
 19 20  1  0  0  0  0
 20 21  1  0  0  0  0
 21 26  2  0  0  0  0
 21 22  1  0  0  0  0
 22 23  2  0  0  0  0
 23 24  1  0  0  0  0
 24 25  2  0  0  0  0
 25 26  1  0  0  0  0
M  END
> <ID>
153502

$$$$
243373
  -OEChem-05171416412D

 27 29  0     1  0  0  0  0  0999 V2000
   -1.7321    3.0104    0.0000 O   0  0  0  0  0  0  0  0  0  0  0  0
   -0.8660    3.5104    0.0000 C   0  0  3  0  0  0  0  0  0  0  0  0
   -0.8660    4.5104    0.0000 C   0  0  0  0  0  0  0  0  0  0  0  0
   -1.7321    5.0104    0.0000 O   0  0  0  0  0  0  0  0  0  0  0  0
   -1.7321    6.0104    0.0000 C   0  0  0  0  0  0  0  0  0  0  0  0
   -2.6041    6.5104    0.0000 C   0  0  0  0  0  0  0  0  0  0  0  0
   -2.6041    7.5105    0.0000 C   0  0  0  0  0  0  0  0  0  0  0  0
   -1.7410    8.0155    0.0000 C   0  0  0  0  0  0  0  0  0  0  0  0
   -0.8690    7.5155    0.0000 C   0  0  0  0  0  0  0  0  0  0  0  0
   -0.8601    6.5104    0.0000 C   0  0  0  0  0  0  0  0  0  0  0  0
   -1.7454    9.0155    0.0000 C   0  0  0  0  0  0  0  0  0  0  0  0
   -0.8816    9.5193    0.0000 O   0  0  0  0  0  0  0  0  0  0  0  0
   -2.6136    9.5117    0.0000 C   0  0  0  0  0  0  0  0  0  0  0  0
   -2.6180   10.5117    0.0000 C   0  0  0  0  0  0  0  0  0  0  0  0
   -3.4862   11.0079    0.0000 C   0  0  0  0  0  0  0  0  0  0  0  0
   -4.3530   10.4989    0.0000 C   0  0  0  0  0  0  0  0  0  0  0  0
   -5.2213   10.9951    0.0000 C   0  0  0  0  0  0  0  0  0  0  0  0
   -5.2316   11.9950    0.0000 C   0  0  0  0  0  0  0  0  0  0  0  0
   -4.3648   12.5040    0.0000 C   0  0  0  0  0  0  0  0  0  0  0  0
   -3.4877   12.0130    0.0000 C   0  0  0  0  0  0  0  0  0  0  0  0
   -0.0000    3.0104    0.0000 C   0  0  0  0  0  0  0  0  0  0  0  0
   -0.0000    2.0104    0.0000 N   0  0  0  0  0  0  0  0  0  0  0  0
   -0.8675    1.5027    0.0000 C   0  0  0  0  0  0  0  0  0  0  0  0
   -0.8675    0.4975    0.0000 C   0  0  0  0  0  0  0  0  0  0  0  0
    0.0000    0.0000    0.0000 C   0  0  0  0  0  0  0  0  0  0  0  0
    0.8675    0.4975    0.0000 C   0  0  0  0  0  0  0  0  0  0  0  0
    0.8675    1.5027    0.0000 C   0  0  0  0  0  0  0  0  0  0  0  0
  1  2  1  0  0  0  0
  2  3  1  0  0  0  0
  3  4  1  0  0  0  0
  4  5  1  0  0  0  0
  5 10  2  0  0  0  0
  5  6  1  0  0  0  0
  6  7  2  0  0  0  0
  7  8  1  0  0  0  0
  8  9  2  0  0  0  0
  9 10  1  0  0  0  0
  8 11  1  0  0  0  0
 11 12  2  0  0  0  0
 11 13  1  0  0  0  0
 13 14  1  0  0  0  0
 14 15  1  0  0  0  0
 15 20  2  0  0  0  0
 15 16  1  0  0  0  0
 16 17  2  0  0  0  0
 17 18  1  0  0  0  0
 18 19  2  0  0  0  0
 19 20  1  0  0  0  0
  2 21  1  0  0  0  0
 21 22  1  0  0  0  0
 22 27  1  0  0  0  0
 22 23  1  0  0  0  0
 23 24  1  0  0  0  0
 24 25  1  0  0  0  0
 25 26  1  0  0  0  0
 26 27  1  0  0  0  0
M  END
> <ID>
243373

$$$$
372333
  -OEChem-05171416412D

 35 38  0     1  0  0  0  0  0999 V2000
   -0.8699    2.5113    0.0000 C   0  0  0  0  0  0  0  0  0  0  0  0
   -0.0046    3.0126    0.0000 C   0  0  0  0  0  0  0  0  0  0  0  0
   -0.0047    4.0127    0.0000 C   0  0  0  0  0  0  0  0  0  0  0  0
    0.8585    4.5177    0.0000 C   0  0  0  0  0  0  0  0  0  0  0  0
    1.7305    4.0177    0.0000 C   0  0  0  0  0  0  0  0  0  0  0  0
    1.7394    3.0126    0.0000 C   0  0  0  0  0  0  0  0  0  0  0  0
    0.8674    2.5126    0.0000 C   0  0  0  0  0  0  0  0  0  0  0  0
    0.8674    1.5126    0.0000 N   0  0  0  0  0  0  0  0  0  0  0  0
    0.0000    1.0051    0.0000 C   0  0  0  0  0  0  0  0  0  0  0  0
    0.0000    0.0000    0.0000 C   0  0  0  0  0  0  0  0  0  0  0  0
    0.8674   -0.4976    0.0000 N   0  0  0  0  0  0  0  0  0  0  0  0
    0.8674   -1.4976    0.0000 C   0  0  0  0  0  0  0  0  0  0  0  0
    1.7334   -1.9976    0.0000 C   0  0  3  0  0  0  0  0  0  0  0  0
    2.5995   -1.4976    0.0000 O   0  0  0  0  0  0  0  0  0  0  0  0
    1.7334   -2.9976    0.0000 C   0  0  0  0  0  0  0  0  0  0  0  0
    2.5995   -3.4976    0.0000 O   0  0  0  0  0  0  0  0  0  0  0  0
    2.5995   -4.4976    0.0000 C   0  0  0  0  0  0  0  0  0  0  0  0
    3.4648   -4.9989    0.0000 C   0  0  0  0  0  0  0  0  0  0  0  0
    3.4691   -5.9989    0.0000 C   0  0  0  0  0  0  0  0  0  0  0  0
    2.5993   -6.5028    0.0000 C   0  0  0  0  0  0  0  0  0  0  0  0
    1.7252   -6.0066    0.0000 C   0  0  0  0  0  0  0  0  0  0  0  0
    1.7297   -5.0015    0.0000 C   0  0  0  0  0  0  0  0  0  0  0  0
    0.8644   -4.5002    0.0000 C   0  0  0  0  0  0  0  0  0  0  0  0
    0.8659   -3.5002    0.0000 O   0  0  0  0  0  0  0  0  0  0  0  0
   -0.0024   -4.9989    0.0000 C   0  0  0  0  0  0  0  0  0  0  0  0
   -0.8677   -4.4976    0.0000 C   0  0  0  0  0  0  0  0  0  0  0  0
   -1.7344   -4.9963    0.0000 C   0  0  0  0  0  0  0  0  0  0  0  0
   -1.7330   -6.0015    0.0000 C   0  0  0  0  0  0  0  0  0  0  0  0
   -2.5998   -6.5002    0.0000 C   0  0  0  0  0  0  0  0  0  0  0  0
   -3.4680   -6.0040    0.0000 C   0  0  0  0  0  0  0  0  0  0  0  0
   -4.3326   -6.5065    0.0000 Cl  0  0  0  0  0  0  0  0  0  0  0  0
   -3.4694   -4.9988    0.0000 C   0  0  0  0  0  0  0  0  0  0  0  0
   -2.6027   -4.4898    0.0000 C   0  0  0  0  0  0  0  0  0  0  0  0
    1.7348    0.0000    0.0000 C   0  0  0  0  0  0  0  0  0  0  0  0
    1.7348    1.0051    0.0000 C   0  0  0  0  0  0  0  0  0  0  0  0
  1  2  1  0  0  0  0
  2  7  2  0  0  0  0
  2  3  1  0  0  0  0
  3  4  2  0  0  0  0
  4  5  1  0  0  0  0
  5  6  2  0  0  0  0
  6  7  1  0  0  0  0
  7  8  1  0  0  0  0
  8 35  1  0  0  0  0
  8  9  1  0  0  0  0
  9 10  1  0  0  0  0
 10 11  1  0  0  0  0
 11 12  1  0  0  0  0
 12 13  1  0  0  0  0
 13 14  1  0  0  0  0
 13 15  1  0  0  0  0
 15 16  1  0  0  0  0
 16 17  1  0  0  0  0
 17 22  2  0  0  0  0
 17 18  1  0  0  0  0
 18 19  2  0  0  0  0
 19 20  1  0  0  0  0
 20 21  2  0  0  0  0
 21 22  1  0  0  0  0
 22 23  1  0  0  0  0
 23 24  2  0  0  0  0
 23 25  1  0  0  0  0
 25 26  1  0  0  0  0
 26 27  1  0  0  0  0
 27 33  2  0  0  0  0
 27 28  1  0  0  0  0
 28 29  2  0  0  0  0
 29 30  1  0  0  0  0
 30 31  1  0  0  0  0
 30 32  2  0  0  0  0
 32 33  1  0  0  0  0
 11 34  1  0  0  0  0
 34 35  1  0  0  0  0
M  END
> <ID>
372333

$$$$
244077
  -OEChem-05171416412D

 27 29  0     1  0  0  0  0  0999 V2000
   -4.3361    6.5078    0.0000 C   0  0  0  0  0  0  0  0  0  0  0  0
   -3.4693    6.0091    0.0000 C   0  0  0  0  0  0  0  0  0  0  0  0
   -3.4678    5.0091    0.0000 O   0  0  0  0  0  0  0  0  0  0  0  0
   -2.6041    6.5104    0.0000 C   0  0  0  0  0  0  0  0  0  0  0  0
   -2.6041    7.5105    0.0000 C   0  0  0  0  0  0  0  0  0  0  0  0
   -1.7410    8.0155    0.0000 C   0  0  0  0  0  0  0  0  0  0  0  0
   -0.8690    7.5155    0.0000 C   0  0  0  0  0  0  0  0  0  0  0  0
   -0.8601    6.5104    0.0000 C   0  0  0  0  0  0  0  0  0  0  0  0
   -1.7321    6.0104    0.0000 C   0  0  0  0  0  0  0  0  0  0  0  0
   -1.7321    5.0104    0.0000 O   0  0  0  0  0  0  0  0  0  0  0  0
   -0.8660    4.5104    0.0000 C   0  0  0  0  0  0  0  0  0  0  0  0
   -0.8660    3.5104    0.0000 C   0  0  3  0  0  0  0  0  0  0  0  0
   -1.7321    3.0104    0.0000 O   0  0  0  0  0  0  0  0  0  0  0  0
   -0.0000    3.0104    0.0000 C   0  0  0  0  0  0  0  0  0  0  0  0
   -0.0000    2.0104    0.0000 N   0  0  0  0  0  0  0  0  0  0  0  0
   -0.8675    1.5027    0.0000 C   0  0  0  0  0  0  0  0  0  0  0  0
   -0.8675    0.4975    0.0000 C   0  0  0  0  0  0  0  0  0  0  0  0
    0.0000    0.0000    0.0000 C   0  0  0  0  0  0  0  0  0  0  0  0
    0.6420   -0.7667    0.0000 O   0  0  0  0  0  0  0  0  0  0  0  0
    0.8675    0.4975    0.0000 C   0  0  0  0  0  0  0  0  0  0  0  0
    0.8675    1.5027    0.0000 C   0  0  0  0  0  0  0  0  0  0  0  0
   -0.6420   -0.7667    0.0000 C   0  0  0  0  0  0  0  0  0  0  0  0
   -0.2946   -1.7099    0.0000 C   0  0  0  0  0  0  0  0  0  0  0  0
   -0.9366   -2.4766    0.0000 C   0  0  0  0  0  0  0  0  0  0  0  0
   -1.9226   -2.3097    0.0000 C   0  0  0  0  0  0  0  0  0  0  0  0
   -2.2701   -1.3665    0.0000 C   0  0  0  0  0  0  0  0  0  0  0  0
   -1.6316   -0.5902    0.0000 C   0  0  0  0  0  0  0  0  0  0  0  0
  1  2  1  0  0  0  0
  2  3  2  0  0  0  0
  2  4  1  0  0  0  0
  4  9  2  0  0  0  0
  4  5  1  0  0  0  0
  5  6  2  0  0  0  0
  6  7  1  0  0  0  0
  7  8  2  0  0  0  0
  8  9  1  0  0  0  0
  9 10  1  0  0  0  0
 10 11  1  0  0  0  0
 11 12  1  0  0  0  0
 12 13  1  0  0  0  0
 12 14  1  0  0  0  0
 14 15  1  0  0  0  0
 15 21  1  0  0  0  0
 15 16  1  0  0  0  0
 16 17  1  0  0  0  0
 17 18  1  0  0  0  0
 18 19  1  0  0  0  0
 18 20  1  0  0  0  0
 20 21  1  0  0  0  0
 18 22  1  0  0  0  0
 22 27  2  0  0  0  0
 22 23  1  0  0  0  0
 23 24  2  0  0  0  0
 24 25  1  0  0  0  0
 25 26  2  0  0  0  0
 26 27  1  0  0  0  0
M  END
> <ID>
244077

$$$$
372328
  -OEChem-05171416412D

 27 29  0     1  0  0  0  0  0999 V2000
   -4.3361    6.5078    0.0000 C   0  0  0  0  0  0  0  0  0  0  0  0
   -3.4693    6.0091    0.0000 C   0  0  0  0  0  0  0  0  0  0  0  0
   -3.4678    5.0091    0.0000 O   0  0  0  0  0  0  0  0  0  0  0  0
   -2.6041    6.5104    0.0000 C   0  0  0  0  0  0  0  0  0  0  0  0
   -2.6041    7.5105    0.0000 C   0  0  0  0  0  0  0  0  0  0  0  0
   -1.7410    8.0155    0.0000 C   0  0  0  0  0  0  0  0  0  0  0  0
   -0.8690    7.5155    0.0000 C   0  0  0  0  0  0  0  0  0  0  0  0
   -0.8601    6.5104    0.0000 C   0  0  0  0  0  0  0  0  0  0  0  0
   -1.7321    6.0104    0.0000 C   0  0  0  0  0  0  0  0  0  0  0  0
   -1.7321    5.0104    0.0000 O   0  0  0  0  0  0  0  0  0  0  0  0
   -0.8660    4.5104    0.0000 C   0  0  0  0  0  0  0  0  0  0  0  0
   -0.8660    3.5104    0.0000 C   0  0  3  0  0  0  0  0  0  0  0  0
   -1.7321    3.0104    0.0000 O   0  0  0  0  0  0  0  0  0  0  0  0
   -0.0000    3.0104    0.0000 C   0  0  0  0  0  0  0  0  0  0  0  0
   -0.0000    2.0104    0.0000 N   0  0  0  0  0  0  0  0  0  0  0  0
   -0.8675    1.5027    0.0000 C   0  0  0  0  0  0  0  0  0  0  0  0
   -0.8675    0.4975    0.0000 C   0  0  0  0  0  0  0  0  0  0  0  0
    0.0000    0.0000    0.0000 C   0  0  0  0  0  0  0  0  0  0  0  0
    0.0000   -1.0000    0.0000 C   0  0  0  0  0  0  0  0  0  0  0  0
    0.8660   -1.5000    0.0000 C   0  0  0  0  0  0  0  0  0  0  0  0
    1.7351   -0.9948    0.0000 C   0  0  0  0  0  0  0  0  0  0  0  0
    2.6011   -1.4948    0.0000 C   0  0  0  0  0  0  0  0  0  0  0  0
    2.6070   -2.4948    0.0000 C   0  0  0  0  0  0  0  0  0  0  0  0
    1.7380   -3.0000    0.0000 C   0  0  0  0  0  0  0  0  0  0  0  0
    0.8631   -2.5051    0.0000 C   0  0  0  0  0  0  0  0  0  0  0  0
    0.8675    0.4975    0.0000 C   0  0  0  0  0  0  0  0  0  0  0  0
    0.8675    1.5027    0.0000 C   0  0  0  0  0  0  0  0  0  0  0  0
  1  2  1  0  0  0  0
  2  3  2  0  0  0  0
  2  4  1  0  0  0  0
  4  9  2  0  0  0  0
  4  5  1  0  0  0  0
  5  6  2  0  0  0  0
  6  7  1  0  0  0  0
  7  8  2  0  0  0  0
  8  9  1  0  0  0  0
  9 10  1  0  0  0  0
 10 11  1  0  0  0  0
 11 12  1  0  0  0  0
 12 13  1  0  0  0  0
 12 14  1  0  0  0  0
 14 15  1  0  0  0  0
 15 27  1  0  0  0  0
 15 16  1  0  0  0  0
 16 17  1  0  0  0  0
 17 18  1  0  0  0  0
 18 19  1  0  0  0  0
 19 20  1  0  0  0  0
 20 25  2  0  0  0  0
 20 21  1  0  0  0  0
 21 22  2  0  0  0  0
 22 23  1  0  0  0  0
 23 24  2  0  0  0  0
 24 25  1  0  0  0  0
 18 26  1  0  0  0  0
 26 27  1  0  0  0  0
M  END
> <ID>
372328

$$$$
243755
  -OEChem-05171416412D

 32 35  0     1  0  0  0  0  0999 V2000
   -0.8647    2.5126    0.0000 O   0  0  0  0  0  0  0  0  0  0  0  0
    0.0014    3.0126    0.0000 C   0  0  3  0  0  0  0  0  0  0  0  0
    0.0014    4.0126    0.0000 C   0  0  0  0  0  0  0  0  0  0  0  0
   -0.8647    4.5126    0.0000 O   0  0  0  0  0  0  0  0  0  0  0  0
   -0.8647    5.5126    0.0000 C   0  0  0  0  0  0  0  0  0  0  0  0
   -1.7300    6.0139    0.0000 C   0  0  0  0  0  0  0  0  0  0  0  0
   -1.7343    7.0139    0.0000 C   0  0  0  0  0  0  0  0  0  0  0  0
   -0.8645    7.5178    0.0000 C   0  0  0  0  0  0  0  0  0  0  0  0
    0.0096    7.0216    0.0000 C   0  0  0  0  0  0  0  0  0  0  0  0
    0.0051    6.0165    0.0000 C   0  0  0  0  0  0  0  0  0  0  0  0
    0.8704    5.5152    0.0000 C   0  0  0  0  0  0  0  0  0  0  0  0
    0.8689    4.5152    0.0000 O   0  0  0  0  0  0  0  0  0  0  0  0
    1.7372    6.0139    0.0000 C   0  0  0  0  0  0  0  0  0  0  0  0
    1.7357    7.0191    0.0000 C   0  0  0  0  0  0  0  0  0  0  0  0
    2.6025    7.5178    0.0000 C   0  0  0  0  0  0  0  0  0  0  0  0
    3.4707    7.0216    0.0000 C   0  0  0  0  0  0  0  0  0  0  0  0
    3.4722    6.0164    0.0000 C   0  0  0  0  0  0  0  0  0  0  0  0
    2.6054    5.5074    0.0000 C   0  0  0  0  0  0  0  0  0  0  0  0
    0.8674    2.5126    0.0000 C   0  0  0  0  0  0  0  0  0  0  0  0
    0.8674    1.5126    0.0000 N   0  0  0  0  0  0  0  0  0  0  0  0
    0.0000    1.0051    0.0000 C   0  0  0  0  0  0  0  0  0  0  0  0
    0.0000    0.0000    0.0000 C   0  0  0  0  0  0  0  0  0  0  0  0
    0.8674   -0.4976    0.0000 N   0  0  0  0  0  0  0  0  0  0  0  0
    1.7348    0.0000    0.0000 C   0  0  0  0  0  0  0  0  0  0  0  0
    1.7348    1.0051    0.0000 C   0  0  0  0  0  0  0  0  0  0  0  0
    0.8674   -1.4976    0.0000 C   0  0  0  0  0  0  0  0  0  0  0  0
    1.7394   -1.9976    0.0000 C   0  0  0  0  0  0  0  0  0  0  0  0
    1.7395   -2.9977    0.0000 C   0  0  0  0  0  0  0  0  0  0  0  0
    0.8763   -3.5027    0.0000 C   0  0  0  0  0  0  0  0  0  0  0  0
    0.8807   -4.5027    0.0000 F   0  0  0  0  0  0  0  0  0  0  0  0
    0.0043   -3.0027    0.0000 C   0  0  0  0  0  0  0  0  0  0  0  0
   -0.0046   -1.9976    0.0000 C   0  0  0  0  0  0  0  0  0  0  0  0
  1  2  1  0  0  0  0
  2  3  1  0  0  0  0
  3  4  1  0  0  0  0
  4  5  1  0  0  0  0
  5 10  2  0  0  0  0
  5  6  1  0  0  0  0
  6  7  2  0  0  0  0
  7  8  1  0  0  0  0
  8  9  2  0  0  0  0
  9 10  1  0  0  0  0
 10 11  1  0  0  0  0
 11 12  2  0  0  0  0
 11 13  1  0  0  0  0
 13 18  2  0  0  0  0
 13 14  1  0  0  0  0
 14 15  2  0  0  0  0
 15 16  1  0  0  0  0
 16 17  2  0  0  0  0
 17 18  1  0  0  0  0
  2 19  1  0  0  0  0
 19 20  1  0  0  0  0
 20 25  1  0  0  0  0
 20 21  1  0  0  0  0
 21 22  1  0  0  0  0
 22 23  1  0  0  0  0
 23 24  1  0  0  0  0
 24 25  1  0  0  0  0
 23 26  1  0  0  0  0
 26 32  2  0  0  0  0
 26 27  1  0  0  0  0
 27 28  2  0  0  0  0
 28 29  1  0  0  0  0
 29 30  1  0  0  0  0
 29 31  2  0  0  0  0
 31 32  1  0  0  0  0
M  END
> <ID>
243755

$$$$
243754
  -OEChem-05171416412D

 32 35  0     1  0  0  0  0  0999 V2000
   -1.7321    3.0104    0.0000 O   0  0  0  0  0  0  0  0  0  0  0  0
   -0.8660    3.5104    0.0000 C   0  0  3  0  0  0  0  0  0  0  0  0
   -0.8660    4.5104    0.0000 C   0  0  0  0  0  0  0  0  0  0  0  0
   -1.7321    5.0104    0.0000 O   0  0  0  0  0  0  0  0  0  0  0  0
   -1.7321    6.0104    0.0000 C   0  0  0  0  0  0  0  0  0  0  0  0
   -2.5974    6.5117    0.0000 C   0  0  0  0  0  0  0  0  0  0  0  0
   -2.6017    7.5117    0.0000 C   0  0  0  0  0  0  0  0  0  0  0  0
   -1.7319    8.0156    0.0000 C   0  0  0  0  0  0  0  0  0  0  0  0
   -0.8578    7.5194    0.0000 C   0  0  0  0  0  0  0  0  0  0  0  0
   -0.8623    6.5143    0.0000 C   0  0  0  0  0  0  0  0  0  0  0  0
    0.0030    6.0130    0.0000 C   0  0  0  0  0  0  0  0  0  0  0  0
    0.0015    5.0130    0.0000 O   0  0  0  0  0  0  0  0  0  0  0  0
    0.8698    6.5117    0.0000 C   0  0  0  0  0  0  0  0  0  0  0  0
    0.8683    7.5169    0.0000 C   0  0  0  0  0  0  0  0  0  0  0  0
    1.7351    8.0156    0.0000 C   0  0  0  0  0  0  0  0  0  0  0  0
    2.6033    7.5194    0.0000 C   0  0  0  0  0  0  0  0  0  0  0  0
    2.6048    6.5142    0.0000 C   0  0  0  0  0  0  0  0  0  0  0  0
    1.7380    6.0052    0.0000 C   0  0  0  0  0  0  0  0  0  0  0  0
   -0.0000    3.0104    0.0000 C   0  0  0  0  0  0  0  0  0  0  0  0
   -0.0000    2.0104    0.0000 N   0  0  0  0  0  0  0  0  0  0  0  0
   -0.8675    1.5027    0.0000 C   0  0  0  0  0  0  0  0  0  0  0  0
   -0.8675    0.4975    0.0000 C   0  0  0  0  0  0  0  0  0  0  0  0
    0.0000    0.0000    0.0000 C   0  0  0  0  0  0  0  0  0  0  0  0
    0.6420   -0.7667    0.0000 O   0  0  0  0  0  0  0  0  0  0  0  0
    0.8675    0.4975    0.0000 C   0  0  0  0  0  0  0  0  0  0  0  0
    0.8675    1.5027    0.0000 C   0  0  0  0  0  0  0  0  0  0  0  0
   -0.6420   -0.7667    0.0000 C   0  0  0  0  0  0  0  0  0  0  0  0
   -0.2946   -1.7099    0.0000 C   0  0  0  0  0  0  0  0  0  0  0  0
   -0.9366   -2.4766    0.0000 C   0  0  0  0  0  0  0  0  0  0  0  0
   -1.9226   -2.3097    0.0000 C   0  0  0  0  0  0  0  0  0  0  0  0
   -2.2701   -1.3665    0.0000 C   0  0  0  0  0  0  0  0  0  0  0  0
   -1.6316   -0.5902    0.0000 C   0  0  0  0  0  0  0  0  0  0  0  0
  1  2  1  0  0  0  0
  2  3  1  0  0  0  0
  3  4  1  0  0  0  0
  4  5  1  0  0  0  0
  5 10  2  0  0  0  0
  5  6  1  0  0  0  0
  6  7  2  0  0  0  0
  7  8  1  0  0  0  0
  8  9  2  0  0  0  0
  9 10  1  0  0  0  0
 10 11  1  0  0  0  0
 11 12  2  0  0  0  0
 11 13  1  0  0  0  0
 13 18  2  0  0  0  0
 13 14  1  0  0  0  0
 14 15  2  0  0  0  0
 15 16  1  0  0  0  0
 16 17  2  0  0  0  0
 17 18  1  0  0  0  0
  2 19  1  0  0  0  0
 19 20  1  0  0  0  0
 20 26  1  0  0  0  0
 20 21  1  0  0  0  0
 21 22  1  0  0  0  0
 22 23  1  0  0  0  0
 23 24  1  0  0  0  0
 23 25  1  0  0  0  0
 25 26  1  0  0  0  0
 23 27  1  0  0  0  0
 27 32  2  0  0  0  0
 27 28  1  0  0  0  0
 28 29  2  0  0  0  0
 29 30  1  0  0  0  0
 30 31  2  0  0  0  0
 31 32  1  0  0  0  0
M  END
> <ID>
243754

$$$$
372325
  -OEChem-05171416412D

 30 32  0     1  0  0  0  0  0999 V2000
   -4.3316    3.5078    0.0000 C   0  0  0  0  0  0  0  0  0  0  0  0
   -4.3331    4.5078    0.0000 C   0  0  0  0  0  0  0  0  0  0  0  0
   -5.1999    5.0065    0.0000 C   0  0  0  0  0  0  0  0  0  0  0  0
   -3.4678    5.0091    0.0000 O   0  0  0  0  0  0  0  0  0  0  0  0
   -3.4693    6.0091    0.0000 C   0  0  3  0  0  0  0  0  0  0  0  0
   -4.3361    6.5078    0.0000 C   0  0  0  0  0  0  0  0  0  0  0  0
   -5.2014    6.0065    0.0000 C   0  0  0  0  0  0  0  0  0  0  0  0
   -6.0682    6.5052    0.0000 C   0  0  0  0  0  0  0  0  0  0  0  0
   -6.9364    5.9988    0.0000 C   0  0  0  0  0  0  0  0  0  0  0  0
   -7.8033    6.4974    0.0000 C   0  0  0  0  0  0  0  0  0  0  0  0
   -7.8106    7.4974    0.0000 C   0  0  0  0  0  0  0  0  0  0  0  0
   -6.9423    8.0039    0.0000 C   0  0  0  0  0  0  0  0  0  0  0  0
   -6.0667    7.5104    0.0000 C   0  0  0  0  0  0  0  0  0  0  0  0
   -2.6041    6.5104    0.0000 C   0  0  0  0  0  0  0  0  0  0  0  0
   -2.6041    7.5105    0.0000 C   0  0  0  0  0  0  0  0  0  0  0  0
   -1.7410    8.0155    0.0000 C   0  0  0  0  0  0  0  0  0  0  0  0
   -0.8690    7.5155    0.0000 C   0  0  0  0  0  0  0  0  0  0  0  0
   -0.8601    6.5104    0.0000 C   0  0  0  0  0  0  0  0  0  0  0  0
   -1.7321    6.0104    0.0000 C   0  0  0  0  0  0  0  0  0  0  0  0
   -1.7321    5.0104    0.0000 O   0  0  0  0  0  0  0  0  0  0  0  0
   -0.8660    4.5104    0.0000 C   0  0  0  0  0  0  0  0  0  0  0  0
   -0.8660    3.5104    0.0000 C   0  0  3  0  0  0  0  0  0  0  0  0
   -1.7321    3.0104    0.0000 O   0  0  0  0  0  0  0  0  0  0  0  0
   -0.0000    3.0104    0.0000 C   0  0  0  0  0  0  0  0  0  0  0  0
   -0.0000    2.0104    0.0000 N   0  0  0  0  0  0  0  0  0  0  0  0
   -0.8675    1.5027    0.0000 C   0  0  0  0  0  0  0  0  0  0  0  0
   -0.8675    0.4975    0.0000 C   0  0  0  0  0  0  0  0  0  0  0  0
    0.0000    0.0000    0.0000 C   0  0  0  0  0  0  0  0  0  0  0  0
    0.8675    0.4975    0.0000 C   0  0  0  0  0  0  0  0  0  0  0  0
    0.8675    1.5027    0.0000 C   0  0  0  0  0  0  0  0  0  0  0  0
  1  2  1  0  0  0  0
  2  3  1  0  0  0  0
  2  4  1  0  0  0  0
  4  5  1  0  0  0  0
  5  6  1  0  0  0  0
  6  7  1  0  0  0  0
  7  8  1  0  0  0  0
  8 13  2  0  0  0  0
  8  9  1  0  0  0  0
  9 10  2  0  0  0  0
 10 11  1  0  0  0  0
 11 12  2  0  0  0  0
 12 13  1  0  0  0  0
  5 14  1  0  0  0  0
 14 19  2  0  0  0  0
 14 15  1  0  0  0  0
 15 16  2  0  0  0  0
 16 17  1  0  0  0  0
 17 18  2  0  0  0  0
 18 19  1  0  0  0  0
 19 20  1  0  0  0  0
 20 21  1  0  0  0  0
 21 22  1  0  0  0  0
 22 23  1  0  0  0  0
 22 24  1  0  0  0  0
 24 25  1  0  0  0  0
 25 30  1  0  0  0  0
 25 26  1  0  0  0  0
 26 27  1  0  0  0  0
 27 28  1  0  0  0  0
 28 29  1  0  0  0  0
 29 30  1  0  0  0  0
M  END
> <ID>
372325

$$$$
243922
  -OEChem-05171416412D

 42 46  0     1  0  0  0  0  0999 V2000
   -0.8647    2.5126    0.0000 O   0  0  0  0  0  0  0  0  0  0  0  0
    0.0014    3.0126    0.0000 C   0  0  3  0  0  0  0  0  0  0  0  0
    0.0014    4.0126    0.0000 C   0  0  0  0  0  0  0  0  0  0  0  0
   -0.8647    4.5126    0.0000 O   0  0  0  0  0  0  0  0  0  0  0  0
   -0.8647    5.5126    0.0000 C   0  0  0  0  0  0  0  0  0  0  0  0
    0.0007    6.0139    0.0000 C   0  0  0  0  0  0  0  0  0  0  0  0
    0.0050    7.0139    0.0000 C   0  0  0  0  0  0  0  0  0  0  0  0
   -0.8648    7.5178    0.0000 C   0  0  0  0  0  0  0  0  0  0  0  0
   -0.8604    8.5177    0.0000 O   0  0  0  0  0  0  0  0  0  0  0  0
   -1.7242    9.0216    0.0000 C   0  0  0  0  0  0  0  0  0  0  0  0
   -1.7198   10.0215    0.0000 C   0  0  0  0  0  0  0  0  0  0  0  0
   -2.5896   10.5254    0.0000 C   0  0  0  0  0  0  0  0  0  0  0  0
   -2.5852   11.5254    0.0000 C   0  0  0  0  0  0  0  0  0  0  0  0
   -1.7199   12.0267    0.0000 C   0  0  0  0  0  0  0  0  0  0  0  0
   -0.8501   11.5228    0.0000 C   0  0  0  0  0  0  0  0  0  0  0  0
   -0.8456   10.5177    0.0000 C   0  0  0  0  0  0  0  0  0  0  0  0
   -1.7389    7.0216    0.0000 C   0  0  0  0  0  0  0  0  0  0  0  0
   -1.7344    6.0165    0.0000 C   0  0  0  0  0  0  0  0  0  0  0  0
   -2.5997    5.5152    0.0000 C   0  0  0  0  0  0  0  0  0  0  0  0
   -3.4665    6.0139    0.0000 O   0  0  0  0  0  0  0  0  0  0  0  0
   -2.5982    4.5152    0.0000 C   0  0  0  0  0  0  0  0  0  0  0  0
   -3.4635    4.0139    0.0000 C   0  0  0  0  0  0  0  0  0  0  0  0
   -3.4620    3.0139    0.0000 C   0  0  0  0  0  0  0  0  0  0  0  0
   -2.5892    2.5151    0.0000 C   0  0  0  0  0  0  0  0  0  0  0  0
   -2.5877    1.5151    0.0000 C   0  0  0  0  0  0  0  0  0  0  0  0
   -3.4501    1.0087    0.0000 C   0  0  0  0  0  0  0  0  0  0  0  0
   -4.3228    1.5075    0.0000 C   0  0  0  0  0  0  0  0  0  0  0  0
   -4.3332    2.5126    0.0000 C   0  0  0  0  0  0  0  0  0  0  0  0
    0.8674    2.5126    0.0000 C   0  0  0  0  0  0  0  0  0  0  0  0
    0.8674    1.5126    0.0000 N   0  0  0  0  0  0  0  0  0  0  0  0
    0.0000    1.0051    0.0000 C   0  0  0  0  0  0  0  0  0  0  0  0
    0.0000    0.0000    0.0000 C   0  0  0  0  0  0  0  0  0  0  0  0
    0.8674   -0.4976    0.0000 N   0  0  0  0  0  0  0  0  0  0  0  0
    0.8674   -1.4976    0.0000 C   0  0  0  0  0  0  0  0  0  0  0  0
    1.7334   -1.9976    0.0000 C   0  0  0  0  0  0  0  0  0  0  0  0
    2.6025   -1.4924    0.0000 C   0  0  0  0  0  0  0  0  0  0  0  0
    3.4685   -1.9924    0.0000 C   0  0  0  0  0  0  0  0  0  0  0  0
    3.4744   -2.9924    0.0000 C   0  0  0  0  0  0  0  0  0  0  0  0
    2.6054   -3.4976    0.0000 C   0  0  0  0  0  0  0  0  0  0  0  0
    1.7305   -3.0027    0.0000 C   0  0  0  0  0  0  0  0  0  0  0  0
    1.7348    0.0000    0.0000 C   0  0  0  0  0  0  0  0  0  0  0  0
    1.7348    1.0051    0.0000 C   0  0  0  0  0  0  0  0  0  0  0  0
  1  2  1  0  0  0  0
  2  3  1  0  0  0  0
  3  4  1  0  0  0  0
  4  5  1  0  0  0  0
  5 18  2  0  0  0  0
  5  6  1  0  0  0  0
  6  7  2  0  0  0  0
  7  8  1  0  0  0  0
  8  9  1  0  0  0  0
  9 10  1  0  0  0  0
 10 11  1  0  0  0  0
 11 16  2  0  0  0  0
 11 12  1  0  0  0  0
 12 13  2  0  0  0  0
 13 14  1  0  0  0  0
 14 15  2  0  0  0  0
 15 16  1  0  0  0  0
  8 17  2  0  0  0  0
 17 18  1  0  0  0  0
 18 19  1  0  0  0  0
 19 20  2  0  0  0  0
 19 21  1  0  0  0  0
 21 22  1  0  0  0  0
 22 23  1  0  0  0  0
 23 28  2  0  0  0  0
 23 24  1  0  0  0  0
 24 25  2  0  0  0  0
 25 26  1  0  0  0  0
 26 27  2  0  0  0  0
 27 28  1  0  0  0  0
  2 29  1  0  0  0  0
 29 30  1  0  0  0  0
 30 42  1  0  0  0  0
 30 31  1  0  0  0  0
 31 32  1  0  0  0  0
 32 33  1  0  0  0  0
 33 34  1  0  0  0  0
 34 35  1  0  0  0  0
 35 40  2  0  0  0  0
 35 36  1  0  0  0  0
 36 37  2  0  0  0  0
 37 38  1  0  0  0  0
 38 39  2  0  0  0  0
 39 40  1  0  0  0  0
 33 41  1  0  0  0  0
 41 42  1  0  0  0  0
M  END
> <ID>
243922

$$$$
244546
  -OEChem-05171416412D

 29 30  0     1  0  0  0  0  0999 V2000
   -6.0600   -3.5063    0.0000 C   0  0  0  0  0  0  0  0  0  0  0  0
   -5.1947   -3.0050    0.0000 C   0  0  0  0  0  0  0  0  0  0  0  0
   -5.1962   -2.0050    0.0000 C   0  0  0  0  0  0  0  0  0  0  0  0
   -4.3280   -3.5038    0.0000 N   0  0  0  0  0  0  0  0  0  0  0  0
   -3.4627   -3.0025    0.0000 C   0  0  0  0  0  0  0  0  0  0  0  0
   -3.4641   -2.0025    0.0000 C   0  0  3  0  0  0  0  0  0  0  0  0
   -4.3309   -1.5038    0.0000 O   0  0  0  0  0  0  0  0  0  0  0  0
   -2.5988   -1.5013    0.0000 C   0  0  0  0  0  0  0  0  0  0  0  0
   -2.6003   -0.5013    0.0000 O   0  0  0  0  0  0  0  0  0  0  0  0
   -1.7350   -0.0000    0.0000 C   0  0  0  0  0  0  0  0  0  0  0  0
   -0.8675   -0.4975    0.0000 C   0  0  0  0  0  0  0  0  0  0  0  0
    0.0000    0.0000    0.0000 C   0  0  0  0  0  0  0  0  0  0  0  0
   -0.0000    1.0052    0.0000 C   0  0  0  0  0  0  0  0  0  0  0  0
    0.8675    1.5026    0.0000 O   0  0  0  0  0  0  0  0  0  0  0  0
   -0.8675    1.5129    0.0000 C   0  0  0  0  0  0  0  0  0  0  0  0
   -1.7350    1.0052    0.0000 C   0  0  0  0  0  0  0  0  0  0  0  0
   -2.6025    1.5026    0.0000 C   0  0  0  0  0  0  0  0  0  0  0  0
   -2.6054    2.5026    0.0000 O   0  0  0  0  0  0  0  0  0  0  0  0
   -3.4670    1.0001    0.0000 C   0  0  0  0  0  0  0  0  0  0  0  0
   -4.3345    1.4975    0.0000 C   0  0  0  0  0  0  0  0  0  0  0  0
   -5.1991    0.9950    0.0000 C   0  0  0  0  0  0  0  0  0  0  0  0
   -5.1932   -0.0102    0.0000 C   0  0  0  0  0  0  0  0  0  0  0  0
   -6.0577   -0.5128    0.0000 C   0  0  0  0  0  0  0  0  0  0  0  0
   -6.9281   -0.0204    0.0000 C   0  0  0  0  0  0  0  0  0  0  0  0
   -6.9341    0.9847    0.0000 C   0  0  0  0  0  0  0  0  0  0  0  0
   -6.0696    1.4976    0.0000 C   0  0  0  0  0  0  0  0  0  0  0  0
   -4.3265   -4.5038    0.0000 C   0  0  0  0  0  0  0  0  0  0  0  0
   -3.4598   -5.0025    0.0000 C   0  0  0  0  0  0  0  0  0  0  0  0
   -5.1918   -5.0050    0.0000 C   0  0  0  0  0  0  0  0  0  0  0  0
  1  2  1  0  0  0  0
  2  3  1  0  0  0  0
  2  4  1  0  0  0  0
  4  5  1  0  0  0  0
  5  6  1  0  0  0  0
  6  7  1  0  0  0  0
  6  8  1  0  0  0  0
  8  9  1  0  0  0  0
  9 10  1  0  0  0  0
 10 16  2  0  0  0  0
 10 11  1  0  0  0  0
 11 12  2  0  0  0  0
 12 13  1  0  0  0  0
 13 14  1  0  0  0  0
 13 15  2  0  0  0  0
 15 16  1  0  0  0  0
 16 17  1  0  0  0  0
 17 18  2  0  0  0  0
 17 19  1  0  0  0  0
 19 20  1  0  0  0  0
 20 21  1  0  0  0  0
 21 26  2  0  0  0  0
 21 22  1  0  0  0  0
 22 23  2  0  0  0  0
 23 24  1  0  0  0  0
 24 25  2  0  0  0  0
 25 26  1  0  0  0  0
  4 27  1  0  0  0  0
 27 28  1  0  0  0  0
 27 29  1  0  0  0  0
M  END
> <ID>
244546

$$$$
244247
  -OEChem-05171416412D

 28 30  0     1  0  0  0  0  0999 V2000
    3.4700    2.9950    0.0000 O   0  0  0  0  0  0  0  0  0  0  0  0
    2.6054    3.4976    0.0000 C   0  0  3  0  0  0  0  0  0  0  0  0
    1.7379    3.0001    0.0000 C   0  0  0  0  0  0  0  0  0  0  0  0
    1.7350    2.0001    0.0000 N   0  0  0  0  0  0  0  0  0  0  0  0
    0.8675    1.5027    0.0000 C   0  0  0  0  0  0  0  0  0  0  0  0
    0.8675    0.4975    0.0000 C   0  0  0  0  0  0  0  0  0  0  0  0
    0.0000    0.0000    0.0000 C   0  0  0  0  0  0  0  0  0  0  0  0
   -0.8675    0.4975    0.0000 C   0  0  0  0  0  0  0  0  0  0  0  0
   -0.8675    1.5027    0.0000 C   0  0  0  0  0  0  0  0  0  0  0  0
    0.0000    2.0104    0.0000 C   0  0  0  0  0  0  0  0  0  0  0  0
    2.6084    4.4976    0.0000 C   0  0  0  0  0  0  0  0  0  0  0  0
    3.4759    4.9950    0.0000 O   0  0  0  0  0  0  0  0  0  0  0  0
    3.4788    5.9950    0.0000 C   0  0  0  0  0  0  0  0  0  0  0  0
    2.6150    6.4988    0.0000 C   0  0  0  0  0  0  0  0  0  0  0  0
    2.6136    7.4989    0.0000 C   0  0  0  0  0  0  0  0  0  0  0  0
    3.4849    8.0002    0.0000 C   0  0  0  0  0  0  0  0  0  0  0  0
    4.3576    7.5014    0.0000 C   0  0  0  0  0  0  0  0  0  0  0  0
    4.3501    6.4963    0.0000 C   0  0  0  0  0  0  0  0  0  0  0  0
    5.2139    5.9925    0.0000 C   0  0  0  0  0  0  0  0  0  0  0  0
    5.2095    4.9925    0.0000 O   0  0  0  0  0  0  0  0  0  0  0  0
    6.0822    6.4886    0.0000 C   0  0  0  0  0  0  0  0  0  0  0  0
    6.9459    5.9848    0.0000 C   0  0  0  0  0  0  0  0  0  0  0  0
    7.8142    6.4809    0.0000 C   0  0  0  0  0  0  0  0  0  0  0  0
    7.8157    7.4861    0.0000 C   0  0  0  0  0  0  0  0  0  0  0  0
    8.6839    7.9823    0.0000 C   0  0  0  0  0  0  0  0  0  0  0  0
    9.5507    7.4835    0.0000 C   0  0  0  0  0  0  0  0  0  0  0  0
    9.5492    6.4783    0.0000 C   0  0  0  0  0  0  0  0  0  0  0  0
    8.6809    5.9719    0.0000 C   0  0  0  0  0  0  0  0  0  0  0  0
  1  2  1  0  0  0  0
  2  3  1  0  0  0  0
  3  4  1  0  0  0  0
  4  5  1  0  0  0  0
  5 10  1  0  0  0  0
  5  6  1  0  0  0  0
  6  7  1  0  0  0  0
  7  8  1  0  0  0  0
  8  9  1  0  0  0  0
  9 10  1  0  0  0  0
  2 11  1  0  0  0  0
 11 12  1  0  0  0  0
 12 13  1  0  0  0  0
 13 18  2  0  0  0  0
 13 14  1  0  0  0  0
 14 15  2  0  0  0  0
 15 16  1  0  0  0  0
 16 17  2  0  0  0  0
 17 18  1  0  0  0  0
 18 19  1  0  0  0  0
 19 20  2  0  0  0  0
 19 21  1  0  0  0  0
 21 22  1  0  0  0  0
 22 23  1  0  0  0  0
 23 28  2  0  0  0  0
 23 24  1  0  0  0  0
 24 25  2  0  0  0  0
 25 26  1  0  0  0  0
 26 27  2  0  0  0  0
 27 28  1  0  0  0  0
M  END
> <ID>
244247

$$$$
244351
  -OEChem-05171416412D

 28 30  0     1  0  0  0  0  0999 V2000
    3.4700    2.9950    0.0000 O   0  0  0  0  0  0  0  0  0  0  0  0
    2.6054    3.4976    0.0000 C   0  0  3  0  0  0  0  0  0  0  0  0
    1.7379    3.0001    0.0000 C   0  0  0  0  0  0  0  0  0  0  0  0
    1.7350    2.0001    0.0000 N   0  0  0  0  0  0  0  0  0  0  0  0
    0.8675    1.5027    0.0000 C   0  0  0  0  0  0  0  0  0  0  0  0
    0.8675    0.4975    0.0000 C   0  0  0  0  0  0  0  0  0  0  0  0
    0.0000    0.0000    0.0000 C   0  0  0  0  0  0  0  0  0  0  0  0
   -0.8675    0.4975    0.0000 C   0  0  0  0  0  0  0  0  0  0  0  0
   -0.8675    1.5027    0.0000 C   0  0  0  0  0  0  0  0  0  0  0  0
    0.0000    2.0104    0.0000 C   0  0  0  0  0  0  0  0  0  0  0  0
    2.6084    4.4976    0.0000 C   0  0  0  0  0  0  0  0  0  0  0  0
    3.4759    4.9950    0.0000 O   0  0  0  0  0  0  0  0  0  0  0  0
    3.4788    5.9950    0.0000 C   0  0  0  0  0  0  0  0  0  0  0  0
    2.6150    6.4988    0.0000 C   0  0  0  0  0  0  0  0  0  0  0  0
    2.6136    7.4989    0.0000 C   0  0  0  0  0  0  0  0  0  0  0  0
    3.4849    8.0002    0.0000 C   0  0  0  0  0  0  0  0  0  0  0  0
    4.3576    7.5014    0.0000 C   0  0  0  0  0  0  0  0  0  0  0  0
    4.3501    6.4963    0.0000 C   0  0  0  0  0  0  0  0  0  0  0  0
    5.2139    5.9925    0.0000 C   0  0  0  0  0  0  0  0  0  0  0  0
    5.2095    4.9925    0.0000 O   0  0  0  0  0  0  0  0  0  0  0  0
    6.0822    6.4886    0.0000 C   0  0  0  0  0  0  0  0  0  0  0  0
    6.9459    5.9848    0.0000 C   0  0  0  0  0  0  0  0  0  0  0  0
    7.8142    6.4809    0.0000 C   0  0  0  0  0  0  0  0  0  0  0  0
    7.8157    7.4861    0.0000 C   0  0  0  0  0  0  0  0  0  0  0  0
    8.6839    7.9823    0.0000 C   0  0  0  0  0  0  0  0  0  0  0  0
    9.5507    7.4835    0.0000 C   0  0  0  0  0  0  0  0  0  0  0  0
    9.5492    6.4783    0.0000 C   0  0  0  0  0  0  0  0  0  0  0  0
    8.6809    5.9719    0.0000 C   0  0  0  0  0  0  0  0  0  0  0  0
  1  2  1  0  0  0  0
  2  3  1  0  0  0  0
  3  4  1  0  0  0  0
  4  5  1  0  0  0  0
  5 10  2  0  0  0  0
  5  6  1  0  0  0  0
  6  7  2  0  0  0  0
  7  8  1  0  0  0  0
  8  9  2  0  0  0  0
  9 10  1  0  0  0  0
  2 11  1  0  0  0  0
 11 12  1  0  0  0  0
 12 13  1  0  0  0  0
 13 18  2  0  0  0  0
 13 14  1  0  0  0  0
 14 15  2  0  0  0  0
 15 16  1  0  0  0  0
 16 17  2  0  0  0  0
 17 18  1  0  0  0  0
 18 19  1  0  0  0  0
 19 20  2  0  0  0  0
 19 21  1  0  0  0  0
 21 22  1  0  0  0  0
 22 23  1  0  0  0  0
 23 28  2  0  0  0  0
 23 24  1  0  0  0  0
 24 25  2  0  0  0  0
 25 26  1  0  0  0  0
 26 27  2  0  0  0  0
 27 28  1  0  0  0  0
M  END
> <ID>
244351

$$$$
243941
  -OEChem-05171416412D

 37 40  0     1  0  0  0  0  0999 V2000
    6.0607    0.4874    0.0000 O   0  0  0  0  0  0  0  0  0  0  0  0
    6.0636    1.4874    0.0000 C   0  0  3  0  0  0  0  0  0  0  0  0
    5.1991    1.9899    0.0000 C   0  0  0  0  0  0  0  0  0  0  0  0
    4.3316    1.4925    0.0000 N   0  0  0  0  0  0  0  0  0  0  0  0
    3.4670    1.9950    0.0000 C   0  0  0  0  0  0  0  0  0  0  0  0
    2.5995    1.4976    0.0000 C   0  0  0  0  0  0  0  0  0  0  0  0
    1.7350    2.0001    0.0000 C   0  0  0  0  0  0  0  0  0  0  0  0
    0.8675    1.5027    0.0000 C   0  0  0  0  0  0  0  0  0  0  0  0
    0.8675    0.4975    0.0000 C   0  0  0  0  0  0  0  0  0  0  0  0
    0.0000    0.0000    0.0000 C   0  0  0  0  0  0  0  0  0  0  0  0
   -0.8675    0.4975    0.0000 C   0  0  0  0  0  0  0  0  0  0  0  0
   -0.8675    1.5027    0.0000 C   0  0  0  0  0  0  0  0  0  0  0  0
    0.0000    2.0104    0.0000 C   0  0  0  0  0  0  0  0  0  0  0  0
    1.7379    3.0001    0.0000 C   0  0  0  0  0  0  0  0  0  0  0  0
    0.8674    3.5027    0.0000 C   0  0  0  0  0  0  0  0  0  0  0  0
    0.8703    4.5028    0.0000 C   0  0  0  0  0  0  0  0  0  0  0  0
    1.7349    5.0053    0.0000 C   0  0  0  0  0  0  0  0  0  0  0  0
    2.6054    4.5027    0.0000 C   0  0  0  0  0  0  0  0  0  0  0  0
    2.6114    3.4976    0.0000 C   0  0  0  0  0  0  0  0  0  0  0  0
    6.9311    1.9848    0.0000 C   0  0  0  0  0  0  0  0  0  0  0  0
    7.7957    1.4823    0.0000 O   0  0  0  0  0  0  0  0  0  0  0  0
    8.6632    1.9797    0.0000 C   0  0  0  0  0  0  0  0  0  0  0  0
    8.6676    2.9797    0.0000 C   0  0  0  0  0  0  0  0  0  0  0  0
    9.5329    3.4810    0.0000 C   0  0  0  0  0  0  0  0  0  0  0  0
   10.4027    2.9770    0.0000 C   0  0  0  0  0  0  0  0  0  0  0  0
   10.4071    1.9719    0.0000 C   0  0  0  0  0  0  0  0  0  0  0  0
    9.5329    1.4758    0.0000 C   0  0  0  0  0  0  0  0  0  0  0  0
    9.5285    0.4758    0.0000 C   0  0  0  0  0  0  0  0  0  0  0  0
    8.6603   -0.0203    0.0000 O   0  0  0  0  0  0  0  0  0  0  0  0
   10.3923   -0.0280    0.0000 C   0  0  0  0  0  0  0  0  0  0  0  0
   10.3878   -1.0280    0.0000 C   0  0  0  0  0  0  0  0  0  0  0  0
   11.2516   -1.5319    0.0000 C   0  0  0  0  0  0  0  0  0  0  0  0
   12.1229   -1.0306    0.0000 C   0  0  0  0  0  0  0  0  0  0  0  0
   12.9868   -1.5344    0.0000 C   0  0  0  0  0  0  0  0  0  0  0  0
   12.9882   -2.5344    0.0000 C   0  0  0  0  0  0  0  0  0  0  0  0
   12.1169   -3.0357    0.0000 C   0  0  0  0  0  0  0  0  0  0  0  0
   11.2442   -2.5370    0.0000 C   0  0  0  0  0  0  0  0  0  0  0  0
  1  2  1  0  0  0  0
  2  3  1  0  0  0  0
  3  4  1  0  0  0  0
  4  5  1  0  0  0  0
  5  6  1  0  0  0  0
  6  7  1  0  0  0  0
  7  8  1  0  0  0  0
  8 13  2  0  0  0  0
  8  9  1  0  0  0  0
  9 10  2  0  0  0  0
 10 11  1  0  0  0  0
 11 12  2  0  0  0  0
 12 13  1  0  0  0  0
  7 14  1  0  0  0  0
 14 19  2  0  0  0  0
 14 15  1  0  0  0  0
 15 16  2  0  0  0  0
 16 17  1  0  0  0  0
 17 18  2  0  0  0  0
 18 19  1  0  0  0  0
  2 20  1  0  0  0  0
 20 21  1  0  0  0  0
 21 22  1  0  0  0  0
 22 27  2  0  0  0  0
 22 23  1  0  0  0  0
 23 24  2  0  0  0  0
 24 25  1  0  0  0  0
 25 26  2  0  0  0  0
 26 27  1  0  0  0  0
 27 28  1  0  0  0  0
 28 29  2  0  0  0  0
 28 30  1  0  0  0  0
 30 31  1  0  0  0  0
 31 32  1  0  0  0  0
 32 37  2  0  0  0  0
 32 33  1  0  0  0  0
 33 34  2  0  0  0  0
 34 35  1  0  0  0  0
 35 36  2  0  0  0  0
 36 37  1  0  0  0  0
M  END
> <ID>
243941

$$$$
243828
  -OEChem-05171416412D

 28 30  0     1  0  0  0  0  0999 V2000
   -1.7321    3.0104    0.0000 O   0  0  0  0  0  0  0  0  0  0  0  0
   -0.8660    3.5104    0.0000 C   0  0  3  0  0  0  0  0  0  0  0  0
   -0.8660    4.5104    0.0000 C   0  0  0  0  0  0  0  0  0  0  0  0
   -1.7321    5.0104    0.0000 O   0  0  0  0  0  0  0  0  0  0  0  0
   -1.7321    6.0104    0.0000 C   0  0  0  0  0  0  0  0  0  0  0  0
   -0.8667    6.5117    0.0000 C   0  0  0  0  0  0  0  0  0  0  0  0
   -0.8624    7.5117    0.0000 C   0  0  0  0  0  0  0  0  0  0  0  0
   -1.7322    8.0156    0.0000 C   0  0  0  0  0  0  0  0  0  0  0  0
   -1.7278    9.0155    0.0000 O   0  0  0  0  0  0  0  0  0  0  0  0
   -2.6063    7.5194    0.0000 C   0  0  0  0  0  0  0  0  0  0  0  0
   -2.6018    6.5143    0.0000 C   0  0  0  0  0  0  0  0  0  0  0  0
   -3.4671    6.0130    0.0000 C   0  0  0  0  0  0  0  0  0  0  0  0
   -4.3339    6.5117    0.0000 O   0  0  0  0  0  0  0  0  0  0  0  0
   -3.4656    5.0130    0.0000 C   0  0  0  0  0  0  0  0  0  0  0  0
   -4.3309    4.5117    0.0000 C   0  0  0  0  0  0  0  0  0  0  0  0
   -4.3294    3.5117    0.0000 C   0  0  0  0  0  0  0  0  0  0  0  0
   -3.4566    3.0129    0.0000 C   0  0  0  0  0  0  0  0  0  0  0  0
   -3.4551    2.0129    0.0000 C   0  0  0  0  0  0  0  0  0  0  0  0
   -4.3175    1.5065    0.0000 C   0  0  0  0  0  0  0  0  0  0  0  0
   -5.1902    2.0053    0.0000 C   0  0  0  0  0  0  0  0  0  0  0  0
   -5.2006    3.0104    0.0000 C   0  0  0  0  0  0  0  0  0  0  0  0
   -0.0000    3.0104    0.0000 C   0  0  0  0  0  0  0  0  0  0  0  0
   -0.0000    2.0104    0.0000 N   0  0  0  0  0  0  0  0  0  0  0  0
   -0.8675    1.5027    0.0000 C   0  0  0  0  0  0  0  0  0  0  0  0
   -0.8675    0.4975    0.0000 C   0  0  0  0  0  0  0  0  0  0  0  0
    0.0000    0.0000    0.0000 C   0  0  0  0  0  0  0  0  0  0  0  0
    0.8675    0.4975    0.0000 C   0  0  0  0  0  0  0  0  0  0  0  0
    0.8675    1.5027    0.0000 C   0  0  0  0  0  0  0  0  0  0  0  0
  1  2  1  0  0  0  0
  2  3  1  0  0  0  0
  3  4  1  0  0  0  0
  4  5  1  0  0  0  0
  5 11  2  0  0  0  0
  5  6  1  0  0  0  0
  6  7  2  0  0  0  0
  7  8  1  0  0  0  0
  8  9  1  0  0  0  0
  8 10  2  0  0  0  0
 10 11  1  0  0  0  0
 11 12  1  0  0  0  0
 12 13  2  0  0  0  0
 12 14  1  0  0  0  0
 14 15  1  0  0  0  0
 15 16  1  0  0  0  0
 16 21  2  0  0  0  0
 16 17  1  0  0  0  0
 17 18  2  0  0  0  0
 18 19  1  0  0  0  0
 19 20  2  0  0  0  0
 20 21  1  0  0  0  0
  2 22  1  0  0  0  0
 22 23  1  0  0  0  0
 23 28  1  0  0  0  0
 23 24  1  0  0  0  0
 24 25  1  0  0  0  0
 25 26  1  0  0  0  0
 26 27  1  0  0  0  0
 27 28  1  0  0  0  0
M  END
> <ID>
243828

$$$$
244419
  -OEChem-05171416412D

 35 38  0     1  0  0  0  0  0999 V2000
   -1.7321    3.0104    0.0000 O   0  0  0  0  0  0  0  0  0  0  0  0
   -0.8660    3.5104    0.0000 C   0  0  3  0  0  0  0  0  0  0  0  0
   -0.8660    4.5104    0.0000 C   0  0  0  0  0  0  0  0  0  0  0  0
   -1.7321    5.0104    0.0000 O   0  0  0  0  0  0  0  0  0  0  0  0
   -1.7321    6.0104    0.0000 C   0  0  0  0  0  0  0  0  0  0  0  0
   -0.8667    6.5117    0.0000 C   0  0  0  0  0  0  0  0  0  0  0  0
   -0.8624    7.5117    0.0000 C   0  0  0  0  0  0  0  0  0  0  0  0
   -1.7322    8.0156    0.0000 C   0  0  0  0  0  0  0  0  0  0  0  0
   -1.7278    9.0155    0.0000 O   0  0  0  0  0  0  0  0  0  0  0  0
   -2.5916    9.5194    0.0000 C   0  0  0  0  0  0  0  0  0  0  0  0
   -2.5872   10.5193    0.0000 C   0  0  0  0  0  0  0  0  0  0  0  0
   -3.4570   11.0232    0.0000 C   0  0  0  0  0  0  0  0  0  0  0  0
   -3.4526   12.0232    0.0000 C   0  0  0  0  0  0  0  0  0  0  0  0
   -2.5873   12.5245    0.0000 C   0  0  0  0  0  0  0  0  0  0  0  0
   -1.7175   12.0206    0.0000 C   0  0  0  0  0  0  0  0  0  0  0  0
   -1.7130   11.0155    0.0000 C   0  0  0  0  0  0  0  0  0  0  0  0
   -2.6063    7.5194    0.0000 C   0  0  0  0  0  0  0  0  0  0  0  0
   -2.6018    6.5143    0.0000 C   0  0  0  0  0  0  0  0  0  0  0  0
   -3.4671    6.0130    0.0000 C   0  0  0  0  0  0  0  0  0  0  0  0
   -4.3339    6.5117    0.0000 O   0  0  0  0  0  0  0  0  0  0  0  0
   -3.4656    5.0130    0.0000 C   0  0  0  0  0  0  0  0  0  0  0  0
   -4.3309    4.5117    0.0000 C   0  0  0  0  0  0  0  0  0  0  0  0
   -4.3294    3.5117    0.0000 C   0  0  0  0  0  0  0  0  0  0  0  0
   -3.4566    3.0129    0.0000 C   0  0  0  0  0  0  0  0  0  0  0  0
   -3.4551    2.0129    0.0000 C   0  0  0  0  0  0  0  0  0  0  0  0
   -4.3175    1.5065    0.0000 C   0  0  0  0  0  0  0  0  0  0  0  0
   -5.1902    2.0053    0.0000 C   0  0  0  0  0  0  0  0  0  0  0  0
   -5.2006    3.0104    0.0000 C   0  0  0  0  0  0  0  0  0  0  0  0
   -0.0000    3.0104    0.0000 C   0  0  0  0  0  0  0  0  0  0  0  0
   -0.0000    2.0104    0.0000 N   0  0  0  0  0  0  0  0  0  0  0  0
   -0.8675    1.5027    0.0000 C   0  0  0  0  0  0  0  0  0  0  0  0
   -0.8675    0.4975    0.0000 C   0  0  0  0  0  0  0  0  0  0  0  0
    0.0000    0.0000    0.0000 C   0  0  0  0  0  0  0  0  0  0  0  0
    0.8675    0.4975    0.0000 C   0  0  0  0  0  0  0  0  0  0  0  0
    0.8675    1.5027    0.0000 C   0  0  0  0  0  0  0  0  0  0  0  0
  1  2  1  0  0  0  0
  2  3  1  0  0  0  0
  3  4  1  0  0  0  0
  4  5  1  0  0  0  0
  5 18  2  0  0  0  0
  5  6  1  0  0  0  0
  6  7  2  0  0  0  0
  7  8  1  0  0  0  0
  8  9  1  0  0  0  0
  9 10  1  0  0  0  0
 10 11  1  0  0  0  0
 11 16  2  0  0  0  0
 11 12  1  0  0  0  0
 12 13  2  0  0  0  0
 13 14  1  0  0  0  0
 14 15  2  0  0  0  0
 15 16  1  0  0  0  0
  8 17  2  0  0  0  0
 17 18  1  0  0  0  0
 18 19  1  0  0  0  0
 19 20  2  0  0  0  0
 19 21  1  0  0  0  0
 21 22  1  0  0  0  0
 22 23  1  0  0  0  0
 23 28  2  0  0  0  0
 23 24  1  0  0  0  0
 24 25  2  0  0  0  0
 25 26  1  0  0  0  0
 26 27  2  0  0  0  0
 27 28  1  0  0  0  0
  2 29  1  0  0  0  0
 29 30  1  0  0  0  0
 30 35  1  0  0  0  0
 30 31  1  0  0  0  0
 31 32  1  0  0  0  0
 32 33  1  0  0  0  0
 33 34  1  0  0  0  0
 34 35  1  0  0  0  0
M  END
> <ID>
244419

$$$$
243826
  -OEChem-05171416412D

 33 35  0     1  0  0  0  0  0999 V2000
   -6.0586   -4.5063    0.0000 C   0  0  0  0  0  0  0  0  0  0  0  0
   -6.0600   -3.5063    0.0000 C   0  0  0  0  0  0  0  0  0  0  0  0
   -5.1947   -3.0050    0.0000 C   0  0  0  0  0  0  0  0  0  0  0  0
   -5.1962   -2.0050    0.0000 N   0  0  0  0  0  0  0  0  0  0  0  0
   -4.3309   -1.5038    0.0000 C   0  0  0  0  0  0  0  0  0  0  0  0
   -3.4641   -2.0025    0.0000 C   0  0  3  0  0  0  0  0  0  0  0  0
   -3.4627   -3.0025    0.0000 O   0  0  0  0  0  0  0  0  0  0  0  0
   -2.5988   -1.5013    0.0000 C   0  0  0  0  0  0  0  0  0  0  0  0
   -2.6003   -0.5013    0.0000 O   0  0  0  0  0  0  0  0  0  0  0  0
   -1.7350   -0.0000    0.0000 C   0  0  0  0  0  0  0  0  0  0  0  0
   -0.8675   -0.4975    0.0000 C   0  0  0  0  0  0  0  0  0  0  0  0
    0.0000    0.0000    0.0000 C   0  0  0  0  0  0  0  0  0  0  0  0
   -0.0000    1.0052    0.0000 C   0  0  0  0  0  0  0  0  0  0  0  0
    0.8675    1.5026    0.0000 O   0  0  0  0  0  0  0  0  0  0  0  0
    0.8704    2.5026    0.0000 C   0  0  0  0  0  0  0  0  0  0  0  0
    1.7379    3.0001    0.0000 C   0  0  0  0  0  0  0  0  0  0  0  0
    1.7379    4.0053    0.0000 C   0  0  0  0  0  0  0  0  0  0  0  0
    2.6054    4.5028    0.0000 C   0  0  0  0  0  0  0  0  0  0  0  0
    3.4729    4.0053    0.0000 C   0  0  0  0  0  0  0  0  0  0  0  0
    3.4729    3.0001    0.0000 C   0  0  0  0  0  0  0  0  0  0  0  0
    2.6054    2.4924    0.0000 C   0  0  0  0  0  0  0  0  0  0  0  0
   -0.8675    1.5129    0.0000 C   0  0  0  0  0  0  0  0  0  0  0  0
   -1.7350    1.0052    0.0000 C   0  0  0  0  0  0  0  0  0  0  0  0
   -2.6025    1.5026    0.0000 C   0  0  0  0  0  0  0  0  0  0  0  0
   -2.6054    2.5026    0.0000 O   0  0  0  0  0  0  0  0  0  0  0  0
   -3.4670    1.0001    0.0000 C   0  0  0  0  0  0  0  0  0  0  0  0
   -4.3345    1.4975    0.0000 C   0  0  0  0  0  0  0  0  0  0  0  0
   -5.1991    0.9950    0.0000 C   0  0  0  0  0  0  0  0  0  0  0  0
   -5.1932   -0.0102    0.0000 C   0  0  0  0  0  0  0  0  0  0  0  0
   -6.0577   -0.5128    0.0000 C   0  0  0  0  0  0  0  0  0  0  0  0
   -6.9281   -0.0204    0.0000 C   0  0  0  0  0  0  0  0  0  0  0  0
   -6.9341    0.9847    0.0000 C   0  0  0  0  0  0  0  0  0  0  0  0
   -6.0696    1.4976    0.0000 C   0  0  0  0  0  0  0  0  0  0  0  0
  1  2  1  0  0  0  0
  2  3  1  0  0  0  0
  3  4  1  0  0  0  0
  4  5  1  0  0  0  0
  5  6  1  0  0  0  0
  6  7  1  0  0  0  0
  6  8  1  0  0  0  0
  8  9  1  0  0  0  0
  9 10  1  0  0  0  0
 10 23  2  0  0  0  0
 10 11  1  0  0  0  0
 11 12  2  0  0  0  0
 12 13  1  0  0  0  0
 13 14  1  0  0  0  0
 14 15  1  0  0  0  0
 15 16  1  0  0  0  0
 16 21  2  0  0  0  0
 16 17  1  0  0  0  0
 17 18  2  0  0  0  0
 18 19  1  0  0  0  0
 19 20  2  0  0  0  0
 20 21  1  0  0  0  0
 13 22  2  0  0  0  0
 22 23  1  0  0  0  0
 23 24  1  0  0  0  0
 24 25  2  0  0  0  0
 24 26  1  0  0  0  0
 26 27  1  0  0  0  0
 27 28  1  0  0  0  0
 28 33  2  0  0  0  0
 28 29  1  0  0  0  0
 29 30  2  0  0  0  0
 30 31  1  0  0  0  0
 31 32  2  0  0  0  0
 32 33  1  0  0  0  0
M  END
> <ID>
243826

$$$$
243609
  -OEChem-05171416412D

 28 30  0     1  0  0  0  0  0999 V2000
    5.2006   -2.9949    0.0000 C   0  0  0  0  0  0  0  0  0  0  0  0
    4.3353   -3.4962    0.0000 O   0  0  0  0  0  0  0  0  0  0  0  0
    4.3368   -4.4962    0.0000 C   0  0  3  0  0  0  0  0  0  0  0  0
    5.2036   -4.9949    0.0000 C   0  0  0  0  0  0  0  0  0  0  0  0
    6.0689   -4.4936    0.0000 C   0  0  0  0  0  0  0  0  0  0  0  0
    6.9357   -4.9923    0.0000 C   0  0  0  0  0  0  0  0  0  0  0  0
    7.8039   -4.4859    0.0000 C   0  0  0  0  0  0  0  0  0  0  0  0
    8.6708   -4.9845    0.0000 C   0  0  0  0  0  0  0  0  0  0  0  0
    8.6781   -5.9845    0.0000 C   0  0  0  0  0  0  0  0  0  0  0  0
    7.8098   -6.4910    0.0000 C   0  0  0  0  0  0  0  0  0  0  0  0
    6.9342   -5.9975    0.0000 C   0  0  0  0  0  0  0  0  0  0  0  0
    3.4716   -4.9975    0.0000 C   0  0  0  0  0  0  0  0  0  0  0  0
    3.4716   -5.9976    0.0000 C   0  0  0  0  0  0  0  0  0  0  0  0
    2.6085   -6.5026    0.0000 C   0  0  0  0  0  0  0  0  0  0  0  0
    1.7365   -6.0026    0.0000 C   0  0  0  0  0  0  0  0  0  0  0  0
    1.7276   -4.9975    0.0000 C   0  0  0  0  0  0  0  0  0  0  0  0
    2.5996   -4.4975    0.0000 C   0  0  0  0  0  0  0  0  0  0  0  0
    2.5996   -3.4975    0.0000 O   0  0  0  0  0  0  0  0  0  0  0  0
    1.7335   -2.9975    0.0000 C   0  0  0  0  0  0  0  0  0  0  0  0
    1.7335   -1.9975    0.0000 C   0  0  3  0  0  0  0  0  0  0  0  0
    2.5996   -1.4975    0.0000 O   0  0  0  0  0  0  0  0  0  0  0  0
    0.8675   -1.4975    0.0000 C   0  0  0  0  0  0  0  0  0  0  0  0
    0.8675   -0.4975    0.0000 N   0  0  0  0  0  0  0  0  0  0  0  0
    0.0000    0.0000    0.0000 C   0  0  0  0  0  0  0  0  0  0  0  0
   -0.0000    1.0052    0.0000 C   0  0  0  0  0  0  0  0  0  0  0  0
    0.8675    1.5129    0.0000 O   0  0  0  0  0  0  0  0  0  0  0  0
    1.7350    1.0052    0.0000 C   0  0  0  0  0  0  0  0  0  0  0  0
    1.7350    0.0000    0.0000 C   0  0  0  0  0  0  0  0  0  0  0  0
  1  2  1  0  0  0  0
  2  3  1  0  0  0  0
  3  4  1  0  0  0  0
  4  5  1  0  0  0  0
  5  6  1  0  0  0  0
  6 11  2  0  0  0  0
  6  7  1  0  0  0  0
  7  8  2  0  0  0  0
  8  9  1  0  0  0  0
  9 10  2  0  0  0  0
 10 11  1  0  0  0  0
  3 12  1  0  0  0  0
 12 17  2  0  0  0  0
 12 13  1  0  0  0  0
 13 14  2  0  0  0  0
 14 15  1  0  0  0  0
 15 16  2  0  0  0  0
 16 17  1  0  0  0  0
 17 18  1  0  0  0  0
 18 19  1  0  0  0  0
 19 20  1  0  0  0  0
 20 21  1  0  0  0  0
 20 22  1  0  0  0  0
 22 23  1  0  0  0  0
 23 28  1  0  0  0  0
 23 24  1  0  0  0  0
 24 25  1  0  0  0  0
 25 26  1  0  0  0  0
 26 27  1  0  0  0  0
 27 28  1  0  0  0  0
M  END
> <ID>
243609

$$$$
244127
  -OEChem-05171416412D

 27 29  0     1  0  0  0  0  0999 V2000
    2.5996   -1.4975    0.0000 O   0  0  0  0  0  0  0  0  0  0  0  0
    1.7335   -1.9975    0.0000 C   0  0  3  0  0  0  0  0  0  0  0  0
    1.7335   -2.9975    0.0000 C   0  0  0  0  0  0  0  0  0  0  0  0
    2.5996   -3.4975    0.0000 O   0  0  0  0  0  0  0  0  0  0  0  0
    2.5996   -4.4975    0.0000 C   0  0  0  0  0  0  0  0  0  0  0  0
    3.4649   -4.9988    0.0000 C   0  0  0  0  0  0  0  0  0  0  0  0
    3.4692   -5.9988    0.0000 C   0  0  0  0  0  0  0  0  0  0  0  0
    2.5994   -6.5027    0.0000 C   0  0  0  0  0  0  0  0  0  0  0  0
    1.7253   -6.0065    0.0000 C   0  0  0  0  0  0  0  0  0  0  0  0
    1.7298   -5.0014    0.0000 C   0  0  0  0  0  0  0  0  0  0  0  0
    0.8645   -4.5001    0.0000 C   0  0  3  0  0  0  0  0  0  0  0  0
    0.8660   -3.5001    0.0000 O   0  0  0  0  0  0  0  0  0  0  0  0
   -0.0023   -4.9988    0.0000 C   0  0  0  0  0  0  0  0  0  0  0  0
   -0.8676   -4.4975    0.0000 C   0  0  0  0  0  0  0  0  0  0  0  0
   -1.7343   -4.9962    0.0000 C   0  0  0  0  0  0  0  0  0  0  0  0
   -1.7329   -6.0014    0.0000 C   0  0  0  0  0  0  0  0  0  0  0  0
   -2.5997   -6.5001    0.0000 C   0  0  0  0  0  0  0  0  0  0  0  0
   -3.4679   -6.0039    0.0000 C   0  0  0  0  0  0  0  0  0  0  0  0
   -3.4693   -4.9987    0.0000 C   0  0  0  0  0  0  0  0  0  0  0  0
   -2.6026   -4.4897    0.0000 C   0  0  0  0  0  0  0  0  0  0  0  0
    0.8675   -1.4975    0.0000 C   0  0  0  0  0  0  0  0  0  0  0  0
    0.8675   -0.4975    0.0000 N   0  0  0  0  0  0  0  0  0  0  0  0
    0.0000    0.0000    0.0000 C   0  0  0  0  0  0  0  0  0  0  0  0
   -0.0000    1.0052    0.0000 C   0  0  0  0  0  0  0  0  0  0  0  0
    0.8675    1.5129    0.0000 O   0  0  0  0  0  0  0  0  0  0  0  0
    1.7350    1.0052    0.0000 C   0  0  0  0  0  0  0  0  0  0  0  0
    1.7350    0.0000    0.0000 C   0  0  0  0  0  0  0  0  0  0  0  0
  1  2  1  0  0  0  0
  2  3  1  0  0  0  0
  3  4  1  0  0  0  0
  4  5  1  0  0  0  0
  5 10  2  0  0  0  0
  5  6  1  0  0  0  0
  6  7  2  0  0  0  0
  7  8  1  0  0  0  0
  8  9  2  0  0  0  0
  9 10  1  0  0  0  0
 10 11  1  0  0  0  0
 11 12  1  0  0  0  0
 11 13  1  0  0  0  0
 13 14  1  0  0  0  0
 14 15  1  0  0  0  0
 15 20  2  0  0  0  0
 15 16  1  0  0  0  0
 16 17  2  0  0  0  0
 17 18  1  0  0  0  0
 18 19  2  0  0  0  0
 19 20  1  0  0  0  0
  2 21  1  0  0  0  0
 21 22  1  0  0  0  0
 22 27  1  0  0  0  0
 22 23  1  0  0  0  0
 23 24  1  0  0  0  0
 24 25  1  0  0  0  0
 25 26  1  0  0  0  0
 26 27  1  0  0  0  0
M  END
> <ID>
244127

$$$$
372302
  -OEChem-05171416412D

 38 41  0     1  0  0  0  0  0999 V2000
    3.4670    1.9950    0.0000 C   0  0  0  0  0  0  0  0  0  0  0  0
    3.4700    2.9950    0.0000 O   0  0  0  0  0  0  0  0  0  0  0  0
    2.6054    3.4976    0.0000 C   0  0  3  0  0  0  0  0  0  0  0  0
    1.7379    3.0001    0.0000 C   0  0  0  0  0  0  0  0  0  0  0  0
    1.7350    2.0001    0.0000 C   0  0  0  0  0  0  0  0  0  0  0  0
    0.8675    1.5027    0.0000 C   0  0  0  0  0  0  0  0  0  0  0  0
    0.8675    0.4975    0.0000 C   0  0  0  0  0  0  0  0  0  0  0  0
    0.0000    0.0000    0.0000 C   0  0  0  0  0  0  0  0  0  0  0  0
   -0.8675    0.4975    0.0000 C   0  0  0  0  0  0  0  0  0  0  0  0
   -0.8675    1.5027    0.0000 C   0  0  0  0  0  0  0  0  0  0  0  0
    0.0000    2.0104    0.0000 C   0  0  0  0  0  0  0  0  0  0  0  0
    2.6084    4.4976    0.0000 C   0  0  0  0  0  0  0  0  0  0  0  0
    1.7446    5.0014    0.0000 C   0  0  0  0  0  0  0  0  0  0  0  0
    1.7431    6.0014    0.0000 C   0  0  0  0  0  0  0  0  0  0  0  0
    2.6144    6.5027    0.0000 C   0  0  0  0  0  0  0  0  0  0  0  0
    3.4871    6.0040    0.0000 C   0  0  0  0  0  0  0  0  0  0  0  0
    3.4797    4.9989    0.0000 C   0  0  0  0  0  0  0  0  0  0  0  0
    4.3435    4.4950    0.0000 O   0  0  0  0  0  0  0  0  0  0  0  0
    5.2117    4.9912    0.0000 C   0  0  0  0  0  0  0  0  0  0  0  0
    6.0755    4.4873    0.0000 C   0  0  3  0  0  0  0  0  0  0  0  0
    6.0711    3.4873    0.0000 O   0  0  0  0  0  0  0  0  0  0  0  0
    6.9437    4.9835    0.0000 C   0  0  0  0  0  0  0  0  0  0  0  0
    7.8075    4.4796    0.0000 N   0  0  0  0  0  0  0  0  0  0  0  0
    8.6758    4.9757    0.0000 C   0  0  0  0  0  0  0  0  0  0  0  0
    9.5396    4.4719    0.0000 C   0  0  0  0  0  0  0  0  0  0  0  0
   10.4078    4.9680    0.0000 C   0  0  0  0  0  0  0  0  0  0  0  0
   10.4123    5.9680    0.0000 C   0  0  0  0  0  0  0  0  0  0  0  0
    9.5425    6.4719    0.0000 C   0  0  0  0  0  0  0  0  0  0  0  0
    9.5469    7.4720    0.0000 C   0  0  0  0  0  0  0  0  0  0  0  0
   10.4122    7.9732    0.0000 C   0  0  0  0  0  0  0  0  0  0  0  0
   11.2820    7.4693    0.0000 C   0  0  0  0  0  0  0  0  0  0  0  0
   11.2864    6.4642    0.0000 C   0  0  0  0  0  0  0  0  0  0  0  0
   11.2716    4.4642    0.0000 C   0  0  0  0  0  0  0  0  0  0  0  0
   12.1429    4.9655    0.0000 C   0  0  0  0  0  0  0  0  0  0  0  0
   13.0067    4.4617    0.0000 C   0  0  0  0  0  0  0  0  0  0  0  0
   13.0081    3.4616    0.0000 C   0  0  0  0  0  0  0  0  0  0  0  0
   12.1369    2.9603    0.0000 C   0  0  0  0  0  0  0  0  0  0  0  0
   11.2642    3.4591    0.0000 C   0  0  0  0  0  0  0  0  0  0  0  0
  1  2  1  0  0  0  0
  2  3  1  0  0  0  0
  3  4  1  0  0  0  0
  4  5  1  0  0  0  0
  5  6  1  0  0  0  0
  6 11  1  0  0  0  0
  6  7  2  0  0  0  0
  7  8  1  0  0  0  0
  8  9  1  0  0  0  0
  9 10  1  0  0  0  0
 10 11  2  0  0  0  0
  3 12  1  0  0  0  0
 12 17  2  0  0  0  0
 12 13  1  0  0  0  0
 13 14  2  0  0  0  0
 14 15  1  0  0  0  0
 15 16  2  0  0  0  0
 16 17  1  0  0  0  0
 17 18  1  0  0  0  0
 18 19  1  0  0  0  0
 19 20  1  0  0  0  0
 20 21  1  0  0  0  0
 20 22  1  0  0  0  0
 22 23  1  0  0  0  0
 23 24  1  0  0  0  0
 24 25  1  0  0  0  0
 25 26  1  0  0  0  0
 26 27  1  0  0  0  0
 27 32  2  0  0  0  0
 27 28  1  0  0  0  0
 28 29  2  0  0  0  0
 29 30  1  0  0  0  0
 30 31  2  0  0  0  0
 31 32  1  0  0  0  0
 26 33  1  0  0  0  0
 33 38  2  0  0  0  0
 33 34  1  0  0  0  0
 34 35  2  0  0  0  0
 35 36  1  0  0  0  0
 36 37  2  0  0  0  0
 37 38  1  0  0  0  0
M  END
> <ID>
372302

$$$$
372299
  -OEChem-05171416412D

 31 33  0     0  0  0  0  0  0999 V2000
    2.5951   10.5130    0.0000 O   0  0  0  0  0  0  0  0  0  0  0  0
    3.4604   11.0143    0.0000 C   0  0  0  0  0  0  0  0  0  0  0  0
    3.4589   12.0143    0.0000 C   0  0  0  0  0  0  0  0  0  0  0  0
    2.5921   12.5130    0.0000 C   0  0  0  0  0  0  0  0  0  0  0  0
    2.5906   13.5130    0.0000 C   0  0  0  0  0  0  0  0  0  0  0  0
    1.7179   14.0117    0.0000 C   0  0  0  0  0  0  0  0  0  0  0  0
    1.7163   15.0117    0.0000 C   0  0  0  0  0  0  0  0  0  0  0  0
    2.5787   15.5181    0.0000 C   0  0  0  0  0  0  0  0  0  0  0  0
    3.4514   15.0194    0.0000 C   0  0  0  0  0  0  0  0  0  0  0  0
    3.4618   14.0143    0.0000 C   0  0  0  0  0  0  0  0  0  0  0  0
    4.3272   10.5156    0.0000 C   0  0  0  0  0  0  0  0  0  0  0  0
    5.1932   11.0157    0.0000 C   0  0  0  0  0  0  0  0  0  0  0  0
    6.0622   10.5207    0.0000 C   0  0  0  0  0  0  0  0  0  0  0  0
    6.0651    9.5155    0.0000 C   0  0  0  0  0  0  0  0  0  0  0  0
    5.1991    9.0053    0.0000 C   0  0  0  0  0  0  0  0  0  0  0  0
    4.3301    9.5104    0.0000 C   0  0  0  0  0  0  0  0  0  0  0  0
    3.4641    9.0104    0.0000 O   0  0  0  0  0  0  0  0  0  0  0  0
    3.4641    8.0104    0.0000 C   0  0  0  0  0  0  0  0  0  0  0  0
    2.5981    7.5104    0.0000 C   0  0  0  0  0  0  0  0  0  0  0  0
    2.5981    6.5104    0.0000 C   0  0  0  0  0  0  0  0  0  0  0  0
    1.7321    6.0104    0.0000 C   0  0  0  0  0  0  0  0  0  0  0  0
    1.7321    5.0104    0.0000 C   0  0  0  0  0  0  0  0  0  0  0  0
    0.8660    4.5104    0.0000 C   0  0  0  0  0  0  0  0  0  0  0  0
    0.8660    3.5104    0.0000 C   0  0  0  0  0  0  0  0  0  0  0  0
   -0.0000    3.0104    0.0000 C   0  0  0  0  0  0  0  0  0  0  0  0
   -0.0000    2.0104    0.0000 N   0  0  0  0  0  0  0  0  0  0  0  0
   -0.8675    1.5027    0.0000 C   0  0  0  0  0  0  0  0  0  0  0  0
   -0.8675    0.4975    0.0000 C   0  0  0  0  0  0  0  0  0  0  0  0
    0.0000    0.0000    0.0000 C   0  0  0  0  0  0  0  0  0  0  0  0
    0.8675    0.4975    0.0000 C   0  0  0  0  0  0  0  0  0  0  0  0
    0.8675    1.5027    0.0000 C   0  0  0  0  0  0  0  0  0  0  0  0
  1  2  2  0  0  0  0
  2  3  1  0  0  0  0
  3  4  1  0  0  0  0
  4  5  1  0  0  0  0
  5 10  2  0  0  0  0
  5  6  1  0  0  0  0
  6  7  2  0  0  0  0
  7  8  1  0  0  0  0
  8  9  2  0  0  0  0
  9 10  1  0  0  0  0
  2 11  1  0  0  0  0
 11 16  2  0  0  0  0
 11 12  1  0  0  0  0
 12 13  2  0  0  0  0
 13 14  1  0  0  0  0
 14 15  2  0  0  0  0
 15 16  1  0  0  0  0
 16 17  1  0  0  0  0
 17 18  1  0  0  0  0
 18 19  1  0  0  0  0
 19 20  1  0  0  0  0
 20 21  1  0  0  0  0
 21 22  1  0  0  0  0
 22 23  1  0  0  0  0
 23 24  1  0  0  0  0
 24 25  1  0  0  0  0
 25 26  1  0  0  0  0
 26 31  1  0  0  0  0
 26 27  1  0  0  0  0
 27 28  1  0  0  0  0
 28 29  1  0  0  0  0
 29 30  1  0  0  0  0
 30 31  1  0  0  0  0
M  END
> <ID>
372299

$$$$
372298
  -OEChem-05171416412D

 30 32  0     0  0  0  0  0  0999 V2000
   -5.1999    8.0091    0.0000 O   0  0  0  0  0  0  0  0  0  0  0  0
   -5.2014    9.0091    0.0000 C   0  0  0  0  0  0  0  0  0  0  0  0
   -6.0682    9.5078    0.0000 C   0  0  0  0  0  0  0  0  0  0  0  0
   -6.9334    9.0065    0.0000 C   0  0  0  0  0  0  0  0  0  0  0  0
   -7.8002    9.5052    0.0000 C   0  0  0  0  0  0  0  0  0  0  0  0
   -8.6685    8.9988    0.0000 C   0  0  0  0  0  0  0  0  0  0  0  0
   -9.5353    9.4974    0.0000 C   0  0  0  0  0  0  0  0  0  0  0  0
   -9.5427   10.4974    0.0000 C   0  0  0  0  0  0  0  0  0  0  0  0
   -8.6744   11.0039    0.0000 C   0  0  0  0  0  0  0  0  0  0  0  0
   -7.7987   10.5104    0.0000 C   0  0  0  0  0  0  0  0  0  0  0  0
   -4.3361    9.5104    0.0000 C   0  0  0  0  0  0  0  0  0  0  0  0
   -4.3362   10.5105    0.0000 C   0  0  0  0  0  0  0  0  0  0  0  0
   -3.4730   11.0155    0.0000 C   0  0  0  0  0  0  0  0  0  0  0  0
   -2.6010   10.5155    0.0000 C   0  0  0  0  0  0  0  0  0  0  0  0
   -2.5921    9.5104    0.0000 C   0  0  0  0  0  0  0  0  0  0  0  0
   -3.4641    9.0104    0.0000 C   0  0  0  0  0  0  0  0  0  0  0  0
   -3.4641    8.0104    0.0000 O   0  0  0  0  0  0  0  0  0  0  0  0
   -2.5981    7.5104    0.0000 C   0  0  0  0  0  0  0  0  0  0  0  0
   -2.5981    6.5104    0.0000 C   0  0  0  0  0  0  0  0  0  0  0  0
   -1.7321    6.0104    0.0000 C   0  0  0  0  0  0  0  0  0  0  0  0
   -1.7321    5.0104    0.0000 C   0  0  0  0  0  0  0  0  0  0  0  0
   -0.8660    4.5104    0.0000 C   0  0  0  0  0  0  0  0  0  0  0  0
   -0.8660    3.5104    0.0000 C   0  0  0  0  0  0  0  0  0  0  0  0
   -0.0000    3.0104    0.0000 C   0  0  0  0  0  0  0  0  0  0  0  0
   -0.0000    2.0104    0.0000 N   0  0  0  0  0  0  0  0  0  0  0  0
   -0.8675    1.5027    0.0000 C   0  0  0  0  0  0  0  0  0  0  0  0
   -0.8675    0.4975    0.0000 C   0  0  0  0  0  0  0  0  0  0  0  0
    0.0000    0.0000    0.0000 C   0  0  0  0  0  0  0  0  0  0  0  0
    0.8675    0.4975    0.0000 C   0  0  0  0  0  0  0  0  0  0  0  0
    0.8675    1.5027    0.0000 C   0  0  0  0  0  0  0  0  0  0  0  0
  1  2  2  0  0  0  0
  2  3  1  0  0  0  0
  3  4  1  0  0  0  0
  4  5  1  0  0  0  0
  5 10  2  0  0  0  0
  5  6  1  0  0  0  0
  6  7  2  0  0  0  0
  7  8  1  0  0  0  0
  8  9  2  0  0  0  0
  9 10  1  0  0  0  0
  2 11  1  0  0  0  0
 11 16  2  0  0  0  0
 11 12  1  0  0  0  0
 12 13  2  0  0  0  0
 13 14  1  0  0  0  0
 14 15  2  0  0  0  0
 15 16  1  0  0  0  0
 16 17  1  0  0  0  0
 17 18  1  0  0  0  0
 18 19  1  0  0  0  0
 19 20  1  0  0  0  0
 20 21  1  0  0  0  0
 21 22  1  0  0  0  0
 22 23  1  0  0  0  0
 23 24  1  0  0  0  0
 24 25  1  0  0  0  0
 25 30  1  0  0  0  0
 25 26  1  0  0  0  0
 26 27  1  0  0  0  0
 27 28  1  0  0  0  0
 28 29  1  0  0  0  0
 29 30  1  0  0  0  0
M  END
> <ID>
372298

$$$$
372371
  -OEChem-05171416412D

 29 31  0     0  0  0  0  0  0999 V2000
    1.7291    9.0130    0.0000 O   0  0  0  0  0  0  0  0  0  0  0  0
    2.5944    9.5143    0.0000 C   0  0  0  0  0  0  0  0  0  0  0  0
    2.5929   10.5143    0.0000 C   0  0  0  0  0  0  0  0  0  0  0  0
    1.7261   11.0130    0.0000 C   0  0  0  0  0  0  0  0  0  0  0  0
    1.7246   12.0130    0.0000 C   0  0  0  0  0  0  0  0  0  0  0  0
    0.8518   12.5117    0.0000 C   0  0  0  0  0  0  0  0  0  0  0  0
    0.8503   13.5117    0.0000 C   0  0  0  0  0  0  0  0  0  0  0  0
    1.7126   14.0181    0.0000 C   0  0  0  0  0  0  0  0  0  0  0  0
    2.5854   13.5194    0.0000 C   0  0  0  0  0  0  0  0  0  0  0  0
    2.5958   12.5143    0.0000 C   0  0  0  0  0  0  0  0  0  0  0  0
    3.4611    9.0156    0.0000 C   0  0  0  0  0  0  0  0  0  0  0  0
    4.3272    9.5157    0.0000 C   0  0  0  0  0  0  0  0  0  0  0  0
    5.1961    9.0207    0.0000 C   0  0  0  0  0  0  0  0  0  0  0  0
    5.1991    8.0155    0.0000 C   0  0  0  0  0  0  0  0  0  0  0  0
    4.3331    7.5053    0.0000 C   0  0  0  0  0  0  0  0  0  0  0  0
    3.4641    8.0104    0.0000 C   0  0  0  0  0  0  0  0  0  0  0  0
    2.5981    7.5104    0.0000 O   0  0  0  0  0  0  0  0  0  0  0  0
    2.5981    6.5104    0.0000 C   0  0  0  0  0  0  0  0  0  0  0  0
    1.7321    6.0104    0.0000 C   0  0  0  0  0  0  0  0  0  0  0  0
    1.7321    5.0104    0.0000 C   0  0  0  0  0  0  0  0  0  0  0  0
    0.8660    4.5104    0.0000 C   0  0  0  0  0  0  0  0  0  0  0  0
    0.8660    3.5104    0.0000 C   0  0  0  0  0  0  0  0  0  0  0  0
   -0.0000    3.0104    0.0000 C   0  0  0  0  0  0  0  0  0  0  0  0
   -0.0000    2.0104    0.0000 N   0  0  0  0  0  0  0  0  0  0  0  0
   -0.8675    1.5027    0.0000 C   0  0  0  0  0  0  0  0  0  0  0  0
   -0.8675    0.4975    0.0000 C   0  0  0  0  0  0  0  0  0  0  0  0
    0.0000    0.0000    0.0000 C   0  0  0  0  0  0  0  0  0  0  0  0
    0.8675    0.4975    0.0000 C   0  0  0  0  0  0  0  0  0  0  0  0
    0.8675    1.5027    0.0000 C   0  0  0  0  0  0  0  0  0  0  0  0
  1  2  2  0  0  0  0
  2  3  1  0  0  0  0
  3  4  1  0  0  0  0
  4  5  1  0  0  0  0
  5 10  2  0  0  0  0
  5  6  1  0  0  0  0
  6  7  2  0  0  0  0
  7  8  1  0  0  0  0
  8  9  2  0  0  0  0
  9 10  1  0  0  0  0
  2 11  1  0  0  0  0
 11 16  2  0  0  0  0
 11 12  1  0  0  0  0
 12 13  2  0  0  0  0
 13 14  1  0  0  0  0
 14 15  2  0  0  0  0
 15 16  1  0  0  0  0
 16 17  1  0  0  0  0
 17 18  1  0  0  0  0
 18 19  1  0  0  0  0
 19 20  1  0  0  0  0
 20 21  1  0  0  0  0
 21 22  1  0  0  0  0
 22 23  1  0  0  0  0
 23 24  1  0  0  0  0
 24 29  1  0  0  0  0
 24 25  1  0  0  0  0
 25 26  1  0  0  0  0
 26 27  1  0  0  0  0
 27 28  1  0  0  0  0
 28 29  1  0  0  0  0
M  END
> <ID>
372371

$$$$
372370
  -OEChem-05171416412D

 28 30  0     0  0  0  0  0  0999 V2000
   -4.3339    6.5091    0.0000 O   0  0  0  0  0  0  0  0  0  0  0  0
   -4.3354    7.5091    0.0000 C   0  0  0  0  0  0  0  0  0  0  0  0
   -5.2021    8.0078    0.0000 C   0  0  0  0  0  0  0  0  0  0  0  0
   -6.0674    7.5065    0.0000 C   0  0  0  0  0  0  0  0  0  0  0  0
   -6.9342    8.0052    0.0000 C   0  0  0  0  0  0  0  0  0  0  0  0
   -7.8025    7.4988    0.0000 C   0  0  0  0  0  0  0  0  0  0  0  0
   -8.6693    7.9974    0.0000 C   0  0  0  0  0  0  0  0  0  0  0  0
   -8.6766    8.9974    0.0000 C   0  0  0  0  0  0  0  0  0  0  0  0
   -7.8084    9.5039    0.0000 C   0  0  0  0  0  0  0  0  0  0  0  0
   -6.9327    9.0104    0.0000 C   0  0  0  0  0  0  0  0  0  0  0  0
   -3.4701    8.0104    0.0000 C   0  0  0  0  0  0  0  0  0  0  0  0
   -3.4701    9.0105    0.0000 C   0  0  0  0  0  0  0  0  0  0  0  0
   -2.6070    9.5155    0.0000 C   0  0  0  0  0  0  0  0  0  0  0  0
   -1.7350    9.0155    0.0000 C   0  0  0  0  0  0  0  0  0  0  0  0
   -1.7261    8.0104    0.0000 C   0  0  0  0  0  0  0  0  0  0  0  0
   -2.5981    7.5104    0.0000 C   0  0  0  0  0  0  0  0  0  0  0  0
   -2.5981    6.5104    0.0000 O   0  0  0  0  0  0  0  0  0  0  0  0
   -1.7321    6.0104    0.0000 C   0  0  0  0  0  0  0  0  0  0  0  0
   -1.7321    5.0104    0.0000 C   0  0  0  0  0  0  0  0  0  0  0  0
   -0.8660    4.5104    0.0000 C   0  0  0  0  0  0  0  0  0  0  0  0
   -0.8660    3.5104    0.0000 C   0  0  0  0  0  0  0  0  0  0  0  0
   -0.0000    3.0104    0.0000 C   0  0  0  0  0  0  0  0  0  0  0  0
   -0.0000    2.0104    0.0000 N   0  0  0  0  0  0  0  0  0  0  0  0
   -0.8675    1.5027    0.0000 C   0  0  0  0  0  0  0  0  0  0  0  0
   -0.8675    0.4975    0.0000 C   0  0  0  0  0  0  0  0  0  0  0  0
    0.0000    0.0000    0.0000 C   0  0  0  0  0  0  0  0  0  0  0  0
    0.8675    0.4975    0.0000 C   0  0  0  0  0  0  0  0  0  0  0  0
    0.8675    1.5027    0.0000 C   0  0  0  0  0  0  0  0  0  0  0  0
  1  2  2  0  0  0  0
  2  3  1  0  0  0  0
  3  4  1  0  0  0  0
  4  5  1  0  0  0  0
  5 10  2  0  0  0  0
  5  6  1  0  0  0  0
  6  7  2  0  0  0  0
  7  8  1  0  0  0  0
  8  9  2  0  0  0  0
  9 10  1  0  0  0  0
  2 11  1  0  0  0  0
 11 16  2  0  0  0  0
 11 12  1  0  0  0  0
 12 13  2  0  0  0  0
 13 14  1  0  0  0  0
 14 15  2  0  0  0  0
 15 16  1  0  0  0  0
 16 17  1  0  0  0  0
 17 18  1  0  0  0  0
 18 19  1  0  0  0  0
 19 20  1  0  0  0  0
 20 21  1  0  0  0  0
 21 22  1  0  0  0  0
 22 23  1  0  0  0  0
 23 28  1  0  0  0  0
 23 24  1  0  0  0  0
 24 25  1  0  0  0  0
 25 26  1  0  0  0  0
 26 27  1  0  0  0  0
 27 28  1  0  0  0  0
M  END
> <ID>
372370

$$$$
372365
  -OEChem-05171416412D

 27 29  0     0  0  0  0  0  0999 V2000
    0.8631    7.5130    0.0000 O   0  0  0  0  0  0  0  0  0  0  0  0
    1.7283    8.0143    0.0000 C   0  0  0  0  0  0  0  0  0  0  0  0
    1.7268    9.0143    0.0000 C   0  0  0  0  0  0  0  0  0  0  0  0
    0.8601    9.5130    0.0000 C   0  0  0  0  0  0  0  0  0  0  0  0
    0.8586   10.5130    0.0000 C   0  0  0  0  0  0  0  0  0  0  0  0
   -0.0142   11.0117    0.0000 C   0  0  0  0  0  0  0  0  0  0  0  0
   -0.0157   12.0117    0.0000 C   0  0  0  0  0  0  0  0  0  0  0  0
    0.8466   12.5181    0.0000 C   0  0  0  0  0  0  0  0  0  0  0  0
    1.7194   12.0194    0.0000 C   0  0  0  0  0  0  0  0  0  0  0  0
    1.7298   11.0143    0.0000 C   0  0  0  0  0  0  0  0  0  0  0  0
    2.5951    7.5156    0.0000 C   0  0  0  0  0  0  0  0  0  0  0  0
    3.4611    8.0157    0.0000 C   0  0  0  0  0  0  0  0  0  0  0  0
    4.3301    7.5207    0.0000 C   0  0  0  0  0  0  0  0  0  0  0  0
    4.3331    6.5155    0.0000 C   0  0  0  0  0  0  0  0  0  0  0  0
    3.4671    6.0053    0.0000 C   0  0  0  0  0  0  0  0  0  0  0  0
    2.5981    6.5104    0.0000 C   0  0  0  0  0  0  0  0  0  0  0  0
    1.7321    6.0104    0.0000 O   0  0  0  0  0  0  0  0  0  0  0  0
    1.7321    5.0104    0.0000 C   0  0  0  0  0  0  0  0  0  0  0  0
    0.8660    4.5104    0.0000 C   0  0  0  0  0  0  0  0  0  0  0  0
    0.8660    3.5104    0.0000 C   0  0  0  0  0  0  0  0  0  0  0  0
   -0.0000    3.0104    0.0000 C   0  0  0  0  0  0  0  0  0  0  0  0
   -0.0000    2.0104    0.0000 N   0  0  0  0  0  0  0  0  0  0  0  0
   -0.8675    1.5027    0.0000 C   0  0  0  0  0  0  0  0  0  0  0  0
   -0.8675    0.4975    0.0000 C   0  0  0  0  0  0  0  0  0  0  0  0
    0.0000    0.0000    0.0000 C   0  0  0  0  0  0  0  0  0  0  0  0
    0.8675    0.4975    0.0000 C   0  0  0  0  0  0  0  0  0  0  0  0
    0.8675    1.5027    0.0000 C   0  0  0  0  0  0  0  0  0  0  0  0
  1  2  2  0  0  0  0
  2  3  1  0  0  0  0
  3  4  1  0  0  0  0
  4  5  1  0  0  0  0
  5 10  2  0  0  0  0
  5  6  1  0  0  0  0
  6  7  2  0  0  0  0
  7  8  1  0  0  0  0
  8  9  2  0  0  0  0
  9 10  1  0  0  0  0
  2 11  1  0  0  0  0
 11 16  2  0  0  0  0
 11 12  1  0  0  0  0
 12 13  2  0  0  0  0
 13 14  1  0  0  0  0
 14 15  2  0  0  0  0
 15 16  1  0  0  0  0
 16 17  1  0  0  0  0
 17 18  1  0  0  0  0
 18 19  1  0  0  0  0
 19 20  1  0  0  0  0
 20 21  1  0  0  0  0
 21 22  1  0  0  0  0
 22 27  1  0  0  0  0
 22 23  1  0  0  0  0
 23 24  1  0  0  0  0
 24 25  1  0  0  0  0
 25 26  1  0  0  0  0
 26 27  1  0  0  0  0
M  END
> <ID>
372365

$$$$
372364
  -OEChem-05171416412D

 25 27  0     0  0  0  0  0  0999 V2000
   -0.0030    6.0130    0.0000 O   0  0  0  0  0  0  0  0  0  0  0  0
    0.8623    6.5143    0.0000 C   0  0  0  0  0  0  0  0  0  0  0  0
    0.8608    7.5143    0.0000 C   0  0  0  0  0  0  0  0  0  0  0  0
   -0.0060    8.0130    0.0000 C   0  0  0  0  0  0  0  0  0  0  0  0
   -0.0075    9.0130    0.0000 C   0  0  0  0  0  0  0  0  0  0  0  0
   -0.8802    9.5117    0.0000 C   0  0  0  0  0  0  0  0  0  0  0  0
   -0.8818   10.5117    0.0000 C   0  0  0  0  0  0  0  0  0  0  0  0
   -0.0194   11.0181    0.0000 C   0  0  0  0  0  0  0  0  0  0  0  0
    0.8533   10.5194    0.0000 C   0  0  0  0  0  0  0  0  0  0  0  0
    0.8637    9.5143    0.0000 C   0  0  0  0  0  0  0  0  0  0  0  0
    1.7291    6.0156    0.0000 C   0  0  0  0  0  0  0  0  0  0  0  0
    2.5951    6.5157    0.0000 C   0  0  0  0  0  0  0  0  0  0  0  0
    3.4641    6.0207    0.0000 C   0  0  0  0  0  0  0  0  0  0  0  0
    3.4670    5.0155    0.0000 C   0  0  0  0  0  0  0  0  0  0  0  0
    2.6010    4.5053    0.0000 C   0  0  0  0  0  0  0  0  0  0  0  0
    1.7321    5.0104    0.0000 C   0  0  0  0  0  0  0  0  0  0  0  0
    0.8660    4.5104    0.0000 O   0  0  0  0  0  0  0  0  0  0  0  0
    0.8660    3.5104    0.0000 C   0  0  0  0  0  0  0  0  0  0  0  0
   -0.0000    3.0104    0.0000 C   0  0  0  0  0  0  0  0  0  0  0  0
   -0.0000    2.0104    0.0000 N   0  0  0  0  0  0  0  0  0  0  0  0
   -0.8675    1.5027    0.0000 C   0  0  0  0  0  0  0  0  0  0  0  0
   -0.8675    0.4975    0.0000 C   0  0  0  0  0  0  0  0  0  0  0  0
    0.0000    0.0000    0.0000 C   0  0  0  0  0  0  0  0  0  0  0  0
    0.8675    0.4975    0.0000 C   0  0  0  0  0  0  0  0  0  0  0  0
    0.8675    1.5027    0.0000 C   0  0  0  0  0  0  0  0  0  0  0  0
  1  2  2  0  0  0  0
  2  3  1  0  0  0  0
  3  4  1  0  0  0  0
  4  5  1  0  0  0  0
  5 10  2  0  0  0  0
  5  6  1  0  0  0  0
  6  7  2  0  0  0  0
  7  8  1  0  0  0  0
  8  9  2  0  0  0  0
  9 10  1  0  0  0  0
  2 11  1  0  0  0  0
 11 16  2  0  0  0  0
 11 12  1  0  0  0  0
 12 13  2  0  0  0  0
 13 14  1  0  0  0  0
 14 15  2  0  0  0  0
 15 16  1  0  0  0  0
 16 17  1  0  0  0  0
 17 18  1  0  0  0  0
 18 19  1  0  0  0  0
 19 20  1  0  0  0  0
 20 25  1  0  0  0  0
 20 21  1  0  0  0  0
 21 22  1  0  0  0  0
 22 23  1  0  0  0  0
 23 24  1  0  0  0  0
 24 25  1  0  0  0  0
M  END
> <ID>
372364

$$$$
372358
  -OEChem-05171416412D

 26 28  0     0  0  0  0  0  0999 V2000
   -3.4678    5.0091    0.0000 O   0  0  0  0  0  0  0  0  0  0  0  0
   -3.4693    6.0091    0.0000 C   0  0  0  0  0  0  0  0  0  0  0  0
   -4.3361    6.5078    0.0000 C   0  0  0  0  0  0  0  0  0  0  0  0
   -5.2014    6.0065    0.0000 C   0  0  0  0  0  0  0  0  0  0  0  0
   -6.0682    6.5052    0.0000 C   0  0  0  0  0  0  0  0  0  0  0  0
   -6.9364    5.9988    0.0000 C   0  0  0  0  0  0  0  0  0  0  0  0
   -7.8033    6.4974    0.0000 C   0  0  0  0  0  0  0  0  0  0  0  0
   -7.8106    7.4974    0.0000 C   0  0  0  0  0  0  0  0  0  0  0  0
   -6.9423    8.0039    0.0000 C   0  0  0  0  0  0  0  0  0  0  0  0
   -6.0667    7.5104    0.0000 C   0  0  0  0  0  0  0  0  0  0  0  0
   -2.6041    6.5104    0.0000 C   0  0  0  0  0  0  0  0  0  0  0  0
   -2.6041    7.5105    0.0000 C   0  0  0  0  0  0  0  0  0  0  0  0
   -1.7410    8.0155    0.0000 C   0  0  0  0  0  0  0  0  0  0  0  0
   -0.8690    7.5155    0.0000 C   0  0  0  0  0  0  0  0  0  0  0  0
   -0.8601    6.5104    0.0000 C   0  0  0  0  0  0  0  0  0  0  0  0
   -1.7321    6.0104    0.0000 C   0  0  0  0  0  0  0  0  0  0  0  0
   -1.7321    5.0104    0.0000 O   0  0  0  0  0  0  0  0  0  0  0  0
   -0.8660    4.5104    0.0000 C   0  0  0  0  0  0  0  0  0  0  0  0
   -0.8660    3.5104    0.0000 C   0  0  0  0  0  0  0  0  0  0  0  0
   -0.0000    3.0104    0.0000 C   0  0  0  0  0  0  0  0  0  0  0  0
   -0.0000    2.0104    0.0000 N   0  0  0  0  0  0  0  0  0  0  0  0
   -0.8675    1.5027    0.0000 C   0  0  0  0  0  0  0  0  0  0  0  0
   -0.8675    0.4975    0.0000 C   0  0  0  0  0  0  0  0  0  0  0  0
    0.0000    0.0000    0.0000 C   0  0  0  0  0  0  0  0  0  0  0  0
    0.8675    0.4975    0.0000 C   0  0  0  0  0  0  0  0  0  0  0  0
    0.8675    1.5027    0.0000 C   0  0  0  0  0  0  0  0  0  0  0  0
  1  2  2  0  0  0  0
  2  3  1  0  0  0  0
  3  4  1  0  0  0  0
  4  5  1  0  0  0  0
  5 10  2  0  0  0  0
  5  6  1  0  0  0  0
  6  7  2  0  0  0  0
  7  8  1  0  0  0  0
  8  9  2  0  0  0  0
  9 10  1  0  0  0  0
  2 11  1  0  0  0  0
 11 16  2  0  0  0  0
 11 12  1  0  0  0  0
 12 13  2  0  0  0  0
 13 14  1  0  0  0  0
 14 15  2  0  0  0  0
 15 16  1  0  0  0  0
 16 17  1  0  0  0  0
 17 18  1  0  0  0  0
 18 19  1  0  0  0  0
 19 20  1  0  0  0  0
 20 21  1  0  0  0  0
 21 26  1  0  0  0  0
 21 22  1  0  0  0  0
 22 23  1  0  0  0  0
 23 24  1  0  0  0  0
 24 25  1  0  0  0  0
 25 26  1  0  0  0  0
M  END
> <ID>
372358

$$$$
244553
  -OEChem-05171416412D

 41 45  0     1  0  0  0  0  0999 V2000
   -1.7595    7.0092    0.0000 O   0  0  0  0  0  0  0  0  0  0  0  0
   -0.8956    7.5128    0.0000 C   0  0  3  0  0  0  0  0  0  0  0  0
   -0.8998    8.5128    0.0000 C   0  0  0  0  0  0  0  0  0  0  0  0
   -1.7679    9.0091    0.0000 N   0  0  0  0  0  0  0  0  0  0  0  0
   -1.7720   10.0091    0.0000 C   0  0  0  0  0  0  0  0  0  0  0  0
   -2.6401   10.5055    0.0000 C   0  0  0  0  0  0  0  0  0  0  0  0
   -2.6443   11.5055    0.0000 C   0  0  0  0  0  0  0  0  0  0  0  0
   -3.5124   12.0019    0.0000 C   0  0  0  0  0  0  0  0  0  0  0  0
   -4.3793   11.4931    0.0000 C   0  0  0  0  0  0  0  0  0  0  0  0
   -5.2475   11.9895    0.0000 C   0  0  0  0  0  0  0  0  0  0  0  0
   -5.2575   12.9894    0.0000 C   0  0  0  0  0  0  0  0  0  0  0  0
   -4.3906   13.4982    0.0000 C   0  0  0  0  0  0  0  0  0  0  0  0
   -3.5136   13.0070    0.0000 C   0  0  0  0  0  0  0  0  0  0  0  0
   -1.7804   12.0091    0.0000 C   0  0  0  0  0  0  0  0  0  0  0  0
   -1.7875   13.0143    0.0000 C   0  0  0  0  0  0  0  0  0  0  0  0
   -0.9236   13.5179    0.0000 C   0  0  0  0  0  0  0  0  0  0  0  0
   -0.0526   13.0266    0.0000 C   0  0  0  0  0  0  0  0  0  0  0  0
   -0.0454   12.0215    0.0000 C   0  0  0  0  0  0  0  0  0  0  0  0
   -0.9093   11.5076    0.0000 C   0  0  0  0  0  0  0  0  0  0  0  0
   -0.0275    7.0164    0.0000 C   0  0  0  0  0  0  0  0  0  0  0  0
   -0.0233    6.0164    0.0000 O   0  0  0  0  0  0  0  0  0  0  0  0
    0.8448    5.5200    0.0000 C   0  0  0  0  0  0  0  0  0  0  0  0
    1.7095    6.0224    0.0000 C   0  0  0  0  0  0  0  0  0  0  0  0
    2.5798    5.5298    0.0000 C   0  0  0  0  0  0  0  0  0  0  0  0
    2.5854    4.5246    0.0000 C   0  0  0  0  0  0  0  0  0  0  0  0
    1.7208    4.0120    0.0000 C   0  0  0  0  0  0  0  0  0  0  0  0
    0.8504    4.5148    0.0000 C   0  0  0  0  0  0  0  0  0  0  0  0
   -0.0143    4.0125    0.0000 C   0  0  0  0  0  0  0  0  0  0  0  0
   -0.8816    4.5102    0.0000 O   0  0  0  0  0  0  0  0  0  0  0  0
   -0.0116    3.0125    0.0000 C   0  0  0  0  0  0  0  0  0  0  0  0
   -0.8763    2.5102    0.0000 C   0  0  0  0  0  0  0  0  0  0  0  0
   -0.8736    1.5102    0.0000 C   0  0  0  0  0  0  0  0  0  0  0  0
   -0.0013    1.0057    0.0000 C   0  0  0  0  0  0  0  0  0  0  0  0
    0.0000    0.0000    0.0000 C   0  0  0  0  0  0  0  0  0  0  0  0
   -0.8710   -0.5011    0.0000 C   0  0  0  0  0  0  0  0  0  0  0  0
   -1.7377   -0.0022    0.0000 C   0  0  0  0  0  0  0  0  0  0  0  0
   -2.6069   -0.5000    0.0000 C   0  0  0  0  0  0  0  0  0  0  0  0
   -3.4748   -0.0022    0.0000 C   0  0  0  0  0  0  0  0  0  0  0  0
   -3.4748    1.0035    0.0000 C   0  0  0  0  0  0  0  0  0  0  0  0
   -2.6069    1.5113    0.0000 C   0  0  0  0  0  0  0  0  0  0  0  0
   -1.7390    1.0035    0.0000 C   0  0  0  0  0  0  0  0  0  0  0  0
  1  2  1  0  0  0  0
  2  3  1  0  0  0  0
  3  4  1  0  0  0  0
  4  5  1  0  0  0  0
  5  6  1  0  0  0  0
  6  7  1  0  0  0  0
  7  8  1  0  0  0  0
  8 13  2  0  0  0  0
  8  9  1  0  0  0  0
  9 10  2  0  0  0  0
 10 11  1  0  0  0  0
 11 12  2  0  0  0  0
 12 13  1  0  0  0  0
  7 14  1  0  0  0  0
 14 19  2  0  0  0  0
 14 15  1  0  0  0  0
 15 16  2  0  0  0  0
 16 17  1  0  0  0  0
 17 18  2  0  0  0  0
 18 19  1  0  0  0  0
  2 20  1  0  0  0  0
 20 21  1  0  0  0  0
 21 22  1  0  0  0  0
 22 27  2  0  0  0  0
 22 23  1  0  0  0  0
 23 24  2  0  0  0  0
 24 25  1  0  0  0  0
 25 26  2  0  0  0  0
 26 27  1  0  0  0  0
 27 28  1  0  0  0  0
 28 29  2  0  0  0  0
 28 30  1  0  0  0  0
 30 31  1  0  0  0  0
 31 32  1  0  0  0  0
 32 41  2  0  0  0  0
 32 33  1  0  0  0  0
 33 34  2  0  0  0  0
 34 35  1  0  0  0  0
 35 36  2  0  0  0  0
 36 41  1  0  0  0  0
 36 37  1  0  0  0  0
 37 38  2  0  0  0  0
 38 39  1  0  0  0  0
 39 40  2  0  0  0  0
 40 41  1  0  0  0  0
M  END
> <ID>
244553

$$$$
372312
  -OEChem-05171416412D

 48 53  0     1  0  0  0  0  0999 V2000
    4.3309   -1.5038    0.0000 O   0  0  0  0  0  0  0  0  0  0  0  0
    4.3323   -0.5038    0.0000 C   0  0  3  0  0  0  0  0  0  0  0  0
    3.4670   -0.0025    0.0000 C   0  0  0  0  0  0  0  0  0  0  0  0
    2.6003   -0.5013    0.0000 O   0  0  0  0  0  0  0  0  0  0  0  0
    1.7350    0.0000    0.0000 C   0  0  0  0  0  0  0  0  0  0  0  0
    0.8675   -0.4975    0.0000 C   0  0  0  0  0  0  0  0  0  0  0  0
    0.0000    0.0000    0.0000 C   0  0  0  0  0  0  0  0  0  0  0  0
   -0.0000    1.0052    0.0000 C   0  0  0  0  0  0  0  0  0  0  0  0
    0.8675    1.5129    0.0000 C   0  0  0  0  0  0  0  0  0  0  0  0
    1.7350    1.0052    0.0000 C   0  0  0  0  0  0  0  0  0  0  0  0
    2.6025    1.5026    0.0000 C   0  0  0  0  0  0  0  0  0  0  0  0
    3.4670    1.0001    0.0000 O   0  0  0  0  0  0  0  0  0  0  0  0
    2.6054    2.5026    0.0000 C   0  0  0  0  0  0  0  0  0  0  0  0
    3.4729    3.0001    0.0000 C   0  0  0  0  0  0  0  0  0  0  0  0
    3.4759    4.0001    0.0000 C   0  0  0  0  0  0  0  0  0  0  0  0
    2.6054    4.5027    0.0000 C   0  0  0  0  0  0  0  0  0  0  0  0
    2.6083    5.5027    0.0000 C   0  0  0  0  0  0  0  0  0  0  0  0
    3.4729    6.0052    0.0000 C   0  0  0  0  0  0  0  0  0  0  0  0
    4.3434    5.5026    0.0000 C   0  0  0  0  0  0  0  0  0  0  0  0
    4.3493    4.4975    0.0000 C   0  0  0  0  0  0  0  0  0  0  0  0
    5.1991   -0.0050    0.0000 C   0  0  0  0  0  0  0  0  0  0  0  0
    6.0644   -0.5063    0.0000 N   0  0  0  0  0  0  0  0  0  0  0  0
    6.9311   -0.0075    0.0000 C   0  0  0  0  0  0  0  0  0  0  0  0
    6.9326    0.9925    0.0000 C   0  0  0  0  0  0  0  0  0  0  0  0
    6.0613    1.4938    0.0000 C   0  0  0  0  0  0  0  0  0  0  0  0
    6.0627    2.4938    0.0000 C   0  0  0  0  0  0  0  0  0  0  0  0
    6.9266    2.9976    0.0000 C   0  0  0  0  0  0  0  0  0  0  0  0
    7.7978    2.4963    0.0000 C   0  0  0  0  0  0  0  0  0  0  0  0
    7.8053    1.4912    0.0000 C   0  0  0  0  0  0  0  0  0  0  0  0
    8.4454   -0.8847    0.0000 C   0  0  0  0  0  0  0  0  0  0  0  0
    9.3152   -0.3808    0.0000 C   0  0  0  0  0  0  0  0  0  0  0  0
   10.1805   -0.8821    0.0000 C   0  0  0  0  0  0  0  0  0  0  0  0
   10.1849   -1.8821    0.0000 C   0  0  0  0  0  0  0  0  0  0  0  0
    9.3152   -2.3860    0.0000 C   0  0  0  0  0  0  0  0  0  0  0  0
    8.4410   -1.8899    0.0000 C   0  0  0  0  0  0  0  0  0  0  0  0
    6.0629   -1.5063    0.0000 C   0  0  0  0  0  0  0  0  0  0  0  0
    6.9282   -2.0075    0.0000 C   0  0  0  0  0  0  0  0  0  0  0  0
    7.7980   -1.5036    0.0000 C   0  0  0  0  0  0  0  0  0  0  0  0
    8.6634   -2.0049    0.0000 C   0  0  0  0  0  0  0  0  0  0  0  0
    8.6678   -3.0049    0.0000 C   0  0  0  0  0  0  0  0  0  0  0  0
    7.7980   -3.5088    0.0000 C   0  0  0  0  0  0  0  0  0  0  0  0
    6.9238   -3.0127    0.0000 C   0  0  0  0  0  0  0  0  0  0  0  0
    4.5461   -2.3791    0.0000 C   0  0  0  0  0  0  0  0  0  0  0  0
    4.5476   -3.3843    0.0000 C   0  0  0  0  0  0  0  0  0  0  0  0
    3.6809   -3.8831    0.0000 C   0  0  0  0  0  0  0  0  0  0  0  0
    2.8126   -3.3869    0.0000 C   0  0  0  0  0  0  0  0  0  0  0  0
    2.8111   -2.3817    0.0000 C   0  0  0  0  0  0  0  0  0  0  0  0
    3.6779   -1.8727    0.0000 C   0  0  0  0  0  0  0  0  0  0  0  0
  1  2  1  0  0  0  0
  2  3  1  0  0  0  0
  3  4  1  0  0  0  0
  4  5  1  0  0  0  0
  5 10  2  0  0  0  0
  5  6  1  0  0  0  0
  6  7  2  0  0  0  0
  7  8  1  0  0  0  0
  8  9  2  0  0  0  0
  9 10  1  0  0  0  0
 10 11  1  0  0  0  0
 11 12  2  0  0  0  0
 11 13  1  0  0  0  0
 13 14  1  0  0  0  0
 14 15  1  0  0  0  0
 15 20  2  0  0  0  0
 15 16  1  0  0  0  0
 16 17  2  0  0  0  0
 17 18  1  0  0  0  0
 18 19  2  0  0  0  0
 19 20  1  0  0  0  0
  2 21  1  0  0  0  0
 21 22  1  0  0  0  0
 22 23  1  0  0  0  0
 23 24  1  0  0  0  0
 24 29  2  0  0  0  0
 24 25  1  0  0  0  0
 25 26  2  0  0  0  0
 26 27  1  0  0  0  0
 27 28  2  0  0  0  0
 28 29  1  0  0  0  0
 23 30  1  0  0  0  0
 30 35  2  0  0  0  0
 30 31  1  0  0  0  0
 31 32  2  0  0  0  0
 32 33  1  0  0  0  0
 33 34  2  0  0  0  0
 34 35  1  0  0  0  0
 22 36  1  0  0  0  0
 36 37  1  0  0  0  0
 37 42  2  0  0  0  0
 37 38  1  0  0  0  0
 38 39  2  0  0  0  0
 39 40  1  0  0  0  0
 40 41  2  0  0  0  0
 41 42  1  0  0  0  0
 36 43  1  0  0  0  0
 43 48  2  0  0  0  0
 43 44  1  0  0  0  0
 44 45  2  0  0  0  0
 45 46  1  0  0  0  0
 46 47  2  0  0  0  0
 47 48  1  0  0  0  0
M  END
> <ID>
372312

$$$$
244547
  -OEChem-05171416412D

 36 39  0     1  0  0  0  0  0999 V2000
    2.5907   -1.5024    0.0000 O   0  0  0  0  0  0  0  0  0  0  0  0
    3.4582   -1.0050    0.0000 C   0  0  3  0  0  0  0  0  0  0  0  0
    3.4611   -0.0050    0.0000 C   0  0  0  0  0  0  0  0  0  0  0  0
    2.5966    0.4976    0.0000 N   0  0  0  0  0  0  0  0  0  0  0  0
    2.5995    1.4976    0.0000 C   0  0  0  0  0  0  0  0  0  0  0  0
    1.7350    2.0001    0.0000 C   0  0  0  0  0  0  0  0  0  0  0  0
    0.8675    1.5027    0.0000 C   0  0  0  0  0  0  0  0  0  0  0  0
    0.8675    0.4975    0.0000 C   0  0  0  0  0  0  0  0  0  0  0  0
    0.0000    0.0000    0.0000 C   0  0  0  0  0  0  0  0  0  0  0  0
   -0.8675    0.4975    0.0000 C   0  0  0  0  0  0  0  0  0  0  0  0
   -0.8675    1.5027    0.0000 C   0  0  0  0  0  0  0  0  0  0  0  0
    0.0000    2.0104    0.0000 C   0  0  0  0  0  0  0  0  0  0  0  0
    1.7379    3.0001    0.0000 C   0  0  0  0  0  0  0  0  0  0  0  0
    0.8674    3.5027    0.0000 C   0  0  0  0  0  0  0  0  0  0  0  0
    0.8703    4.5028    0.0000 C   0  0  0  0  0  0  0  0  0  0  0  0
    1.7349    5.0053    0.0000 C   0  0  0  0  0  0  0  0  0  0  0  0
    2.6054    4.5027    0.0000 C   0  0  0  0  0  0  0  0  0  0  0  0
    2.6114    3.4976    0.0000 C   0  0  0  0  0  0  0  0  0  0  0  0
    4.3227   -1.5075    0.0000 C   0  0  0  0  0  0  0  0  0  0  0  0
    4.3198   -2.5075    0.0000 O   0  0  0  0  0  0  0  0  0  0  0  0
    5.1843   -3.0101    0.0000 C   0  0  0  0  0  0  0  0  0  0  0  0
    6.0526   -2.5139    0.0000 C   0  0  0  0  0  0  0  0  0  0  0  0
    6.9193   -3.0127    0.0000 C   0  0  0  0  0  0  0  0  0  0  0  0
    6.9178   -4.0179    0.0000 C   0  0  0  0  0  0  0  0  0  0  0  0
    6.0496   -4.5243    0.0000 C   0  0  0  0  0  0  0  0  0  0  0  0
    5.1828   -4.0153    0.0000 C   0  0  0  0  0  0  0  0  0  0  0  0
    4.3146   -4.5114    0.0000 C   0  0  0  0  0  0  0  0  0  0  0  0
    3.4508   -4.0075    0.0000 O   0  0  0  0  0  0  0  0  0  0  0  0
    4.3101   -5.5114    0.0000 C   0  0  0  0  0  0  0  0  0  0  0  0
    3.4419   -6.0075    0.0000 C   0  0  0  0  0  0  0  0  0  0  0  0
    3.4374   -7.0075    0.0000 C   0  0  0  0  0  0  0  0  0  0  0  0
    4.3072   -7.5114    0.0000 C   0  0  0  0  0  0  0  0  0  0  0  0
    4.3028   -8.5114    0.0000 C   0  0  0  0  0  0  0  0  0  0  0  0
    3.4375   -9.0127    0.0000 C   0  0  0  0  0  0  0  0  0  0  0  0
    2.5677   -8.5088    0.0000 C   0  0  0  0  0  0  0  0  0  0  0  0
    2.5633   -7.5036    0.0000 C   0  0  0  0  0  0  0  0  0  0  0  0
  1  2  1  0  0  0  0
  2  3  1  0  0  0  0
  3  4  1  0  0  0  0
  4  5  1  0  0  0  0
  5  6  1  0  0  0  0
  6  7  1  0  0  0  0
  7 12  2  0  0  0  0
  7  8  1  0  0  0  0
  8  9  2  0  0  0  0
  9 10  1  0  0  0  0
 10 11  2  0  0  0  0
 11 12  1  0  0  0  0
  6 13  1  0  0  0  0
 13 18  2  0  0  0  0
 13 14  1  0  0  0  0
 14 15  2  0  0  0  0
 15 16  1  0  0  0  0
 16 17  2  0  0  0  0
 17 18  1  0  0  0  0
  2 19  1  0  0  0  0
 19 20  1  0  0  0  0
 20 21  1  0  0  0  0
 21 26  2  0  0  0  0
 21 22  1  0  0  0  0
 22 23  2  0  0  0  0
 23 24  1  0  0  0  0
 24 25  2  0  0  0  0
 25 26  1  0  0  0  0
 26 27  1  0  0  0  0
 27 28  2  0  0  0  0
 27 29  1  0  0  0  0
 29 30  1  0  0  0  0
 30 31  1  0  0  0  0
 31 36  2  0  0  0  0
 31 32  1  0  0  0  0
 32 33  2  0  0  0  0
 33 34  1  0  0  0  0
 34 35  2  0  0  0  0
 35 36  1  0  0  0  0
M  END
> <ID>
244547

$$$$
244046
  -OEChem-05171416412D

 31 34  0     1  0  0  0  0  0999 V2000
   -1.7321    3.0104    0.0000 O   0  0  0  0  0  0  0  0  0  0  0  0
   -0.8660    3.5104    0.0000 C   0  0  3  0  0  0  0  0  0  0  0  0
   -0.8660    4.5104    0.0000 C   0  0  0  0  0  0  0  0  0  0  0  0
   -1.7321    5.0104    0.0000 O   0  0  0  0  0  0  0  0  0  0  0  0
   -1.7321    6.0104    0.0000 C   0  0  0  0  0  0  0  0  0  0  0  0
   -2.5974    6.5117    0.0000 C   0  0  0  0  0  0  0  0  0  0  0  0
   -2.6017    7.5117    0.0000 C   0  0  0  0  0  0  0  0  0  0  0  0
   -1.7319    8.0156    0.0000 C   0  0  0  0  0  0  0  0  0  0  0  0
   -0.8578    7.5194    0.0000 C   0  0  0  0  0  0  0  0  0  0  0  0
   -0.8623    6.5143    0.0000 C   0  0  0  0  0  0  0  0  0  0  0  0
    0.0030    6.0130    0.0000 C   0  0  0  0  0  0  0  0  0  0  0  0
    0.0015    5.0130    0.0000 O   0  0  0  0  0  0  0  0  0  0  0  0
    0.8698    6.5117    0.0000 C   0  0  0  0  0  0  0  0  0  0  0  0
    1.7351    6.0104    0.0000 C   0  0  0  0  0  0  0  0  0  0  0  0
    2.6018    6.5091    0.0000 C   0  0  0  0  0  0  0  0  0  0  0  0
    2.6068    7.5167    0.0000 C   0  0  0  0  0  0  0  0  0  0  0  0
    3.4792    8.0171    0.0000 C   0  0  0  0  0  0  0  0  0  0  0  0
    4.3466    7.5097    0.0000 C   0  0  0  0  0  0  0  0  0  0  0  0
    4.3437    6.5097    0.0000 C   0  0  0  0  0  0  0  0  0  0  0  0
    5.2073    6.0022    0.0000 C   0  0  0  0  0  0  0  0  0  0  0  0
    5.2060    5.0017    0.0000 C   0  0  0  0  0  0  0  0  0  0  0  0
    4.3329    4.5025    0.0000 C   0  0  0  0  0  0  0  0  0  0  0  0
    3.4613    5.0038    0.0000 C   0  0  0  0  0  0  0  0  0  0  0  0
    3.4713    6.0093    0.0000 C   0  0  0  0  0  0  0  0  0  0  0  0
   -0.0000    3.0104    0.0000 C   0  0  0  0  0  0  0  0  0  0  0  0
   -0.0000    2.0104    0.0000 N   0  0  0  0  0  0  0  0  0  0  0  0
   -0.8675    1.5027    0.0000 C   0  0  0  0  0  0  0  0  0  0  0  0
   -0.8675    0.4975    0.0000 C   0  0  0  0  0  0  0  0  0  0  0  0
    0.0000    0.0000    0.0000 C   0  0  0  0  0  0  0  0  0  0  0  0
    0.8675    0.4975    0.0000 C   0  0  0  0  0  0  0  0  0  0  0  0
    0.8675    1.5027    0.0000 C   0  0  0  0  0  0  0  0  0  0  0  0
  1  2  1  0  0  0  0
  2  3  1  0  0  0  0
  3  4  1  0  0  0  0
  4  5  1  0  0  0  0
  5 10  2  0  0  0  0
  5  6  1  0  0  0  0
  6  7  2  0  0  0  0
  7  8  1  0  0  0  0
  8  9  2  0  0  0  0
  9 10  1  0  0  0  0
 10 11  1  0  0  0  0
 11 12  2  0  0  0  0
 11 13  1  0  0  0  0
 13 14  1  0  0  0  0
 14 15  1  0  0  0  0
 15 24  2  0  0  0  0
 15 16  1  0  0  0  0
 16 17  2  0  0  0  0
 17 18  1  0  0  0  0
 18 19  2  0  0  0  0
 19 24  1  0  0  0  0
 19 20  1  0  0  0  0
 20 21  2  0  0  0  0
 21 22  1  0  0  0  0
 22 23  2  0  0  0  0
 23 24  1  0  0  0  0
  2 25  1  0  0  0  0
 25 26  1  0  0  0  0
 26 31  1  0  0  0  0
 26 27  1  0  0  0  0
 27 28  1  0  0  0  0
 28 29  1  0  0  0  0
 29 30  1  0  0  0  0
 30 31  1  0  0  0  0
M  END
> <ID>
244046

$$$$
244124
  -OEChem-05171416412D

 29 30  0     1  0  0  0  0  0999 V2000
    3.4670    1.9950    0.0000 C   0  0  0  0  0  0  0  0  0  0  0  0
    3.4700    2.9950    0.0000 O   0  0  0  0  0  0  0  0  0  0  0  0
    2.6054    3.4976    0.0000 C   0  0  3  0  0  0  0  0  0  0  0  0
    1.7379    3.0001    0.0000 C   0  0  0  0  0  0  0  0  0  0  0  0
    1.7350    2.0001    0.0000 C   0  0  0  0  0  0  0  0  0  0  0  0
    0.8675    1.5027    0.0000 C   0  0  0  0  0  0  0  0  0  0  0  0
    0.8675    0.4975    0.0000 C   0  0  0  0  0  0  0  0  0  0  0  0
    0.0000    0.0000    0.0000 C   0  0  0  0  0  0  0  0  0  0  0  0
   -0.8675    0.4975    0.0000 C   0  0  0  0  0  0  0  0  0  0  0  0
   -0.8675    1.5027    0.0000 C   0  0  0  0  0  0  0  0  0  0  0  0
    0.0000    2.0104    0.0000 C   0  0  0  0  0  0  0  0  0  0  0  0
    2.6084    4.4976    0.0000 C   0  0  0  0  0  0  0  0  0  0  0  0
    1.7446    5.0014    0.0000 C   0  0  0  0  0  0  0  0  0  0  0  0
    1.7431    6.0014    0.0000 C   0  0  0  0  0  0  0  0  0  0  0  0
    2.6144    6.5027    0.0000 C   0  0  0  0  0  0  0  0  0  0  0  0
    3.4871    6.0040    0.0000 C   0  0  0  0  0  0  0  0  0  0  0  0
    3.4797    4.9989    0.0000 C   0  0  0  0  0  0  0  0  0  0  0  0
    4.3435    4.4950    0.0000 O   0  0  0  0  0  0  0  0  0  0  0  0
    5.2117    4.9912    0.0000 C   0  0  0  0  0  0  0  0  0  0  0  0
    6.0755    4.4873    0.0000 C   0  0  3  0  0  0  0  0  0  0  0  0
    6.0711    3.4873    0.0000 O   0  0  0  0  0  0  0  0  0  0  0  0
    6.9437    4.9835    0.0000 C   0  0  0  0  0  0  0  0  0  0  0  0
    7.8075    4.4796    0.0000 N   0  0  0  0  0  0  0  0  0  0  0  0
    8.6758    4.9757    0.0000 C   0  0  0  0  0  0  0  0  0  0  0  0
    8.6802    5.9757    0.0000 C   0  0  0  0  0  0  0  0  0  0  0  0
    9.5396    4.4719    0.0000 C   0  0  0  0  0  0  0  0  0  0  0  0
    7.8031    3.4796    0.0000 C   0  0  0  0  0  0  0  0  0  0  0  0
    8.6669    2.9758    0.0000 C   0  0  0  0  0  0  0  0  0  0  0  0
    6.9348    2.9835    0.0000 C   0  0  0  0  0  0  0  0  0  0  0  0
  1  2  1  0  0  0  0
  2  3  1  0  0  0  0
  3  4  1  0  0  0  0
  4  5  1  0  0  0  0
  5  6  1  0  0  0  0
  6 11  2  0  0  0  0
  6  7  1  0  0  0  0
  7  8  2  0  0  0  0
  8  9  1  0  0  0  0
  9 10  2  0  0  0  0
 10 11  1  0  0  0  0
  3 12  1  0  0  0  0
 12 17  2  0  0  0  0
 12 13  1  0  0  0  0
 13 14  2  0  0  0  0
 14 15  1  0  0  0  0
 15 16  2  0  0  0  0
 16 17  1  0  0  0  0
 17 18  1  0  0  0  0
 18 19  1  0  0  0  0
 19 20  1  0  0  0  0
 20 21  1  0  0  0  0
 20 22  1  0  0  0  0
 22 23  1  0  0  0  0
 23 24  1  0  0  0  0
 24 25  1  0  0  0  0
 24 26  1  0  0  0  0
 23 27  1  0  0  0  0
 27 28  1  0  0  0  0
 27 29  1  0  0  0  0
M  END
> <ID>
244124

$$$$
244044
  -OEChem-05171416412D

 28 29  0     1  0  0  0  0  0999 V2000
    6.9282   -2.0075    0.0000 C   0  0  0  0  0  0  0  0  0  0  0  0
    6.0629   -1.5063    0.0000 C   0  0  0  0  0  0  0  0  0  0  0  0
    5.1962   -2.0050    0.0000 C   0  0  0  0  0  0  0  0  0  0  0  0
    6.0644   -0.5063    0.0000 N   0  0  0  0  0  0  0  0  0  0  0  0
    5.1991   -0.0050    0.0000 C   0  0  0  0  0  0  0  0  0  0  0  0
    4.3323   -0.5038    0.0000 C   0  0  3  0  0  0  0  0  0  0  0  0
    4.3309   -1.5038    0.0000 O   0  0  0  0  0  0  0  0  0  0  0  0
    3.4670   -0.0025    0.0000 C   0  0  0  0  0  0  0  0  0  0  0  0
    2.6003   -0.5013    0.0000 O   0  0  0  0  0  0  0  0  0  0  0  0
    1.7350    0.0000    0.0000 C   0  0  0  0  0  0  0  0  0  0  0  0
    0.8675   -0.4975    0.0000 C   0  0  0  0  0  0  0  0  0  0  0  0
    0.0000    0.0000    0.0000 C   0  0  0  0  0  0  0  0  0  0  0  0
   -0.0000    1.0052    0.0000 C   0  0  0  0  0  0  0  0  0  0  0  0
    0.8675    1.5129    0.0000 C   0  0  0  0  0  0  0  0  0  0  0  0
    1.7350    1.0052    0.0000 C   0  0  0  0  0  0  0  0  0  0  0  0
    2.6025    1.5026    0.0000 C   0  0  3  0  0  0  0  0  0  0  0  0
    3.4670    1.0001    0.0000 O   0  0  0  0  0  0  0  0  0  0  0  0
    2.6054    2.5026    0.0000 C   0  0  0  0  0  0  0  0  0  0  0  0
    3.4729    3.0001    0.0000 C   0  0  0  0  0  0  0  0  0  0  0  0
    3.4759    4.0001    0.0000 C   0  0  0  0  0  0  0  0  0  0  0  0
    2.6054    4.5027    0.0000 C   0  0  0  0  0  0  0  0  0  0  0  0
    2.6083    5.5027    0.0000 C   0  0  0  0  0  0  0  0  0  0  0  0
    3.4729    6.0052    0.0000 C   0  0  0  0  0  0  0  0  0  0  0  0
    4.3434    5.5026    0.0000 C   0  0  0  0  0  0  0  0  0  0  0  0
    4.3493    4.4975    0.0000 C   0  0  0  0  0  0  0  0  0  0  0  0
    6.9311   -0.0075    0.0000 C   0  0  0  0  0  0  0  0  0  0  0  0
    6.9326    0.9925    0.0000 C   0  0  0  0  0  0  0  0  0  0  0  0
    7.7964   -0.5088    0.0000 C   0  0  0  0  0  0  0  0  0  0  0  0
  1  2  1  0  0  0  0
  2  3  1  0  0  0  0
  2  4  1  0  0  0  0
  4  5  1  0  0  0  0
  5  6  1  0  0  0  0
  6  7  1  0  0  0  0
  6  8  1  0  0  0  0
  8  9  1  0  0  0  0
  9 10  1  0  0  0  0
 10 15  2  0  0  0  0
 10 11  1  0  0  0  0
 11 12  2  0  0  0  0
 12 13  1  0  0  0  0
 13 14  2  0  0  0  0
 14 15  1  0  0  0  0
 15 16  1  0  0  0  0
 16 17  1  0  0  0  0
 16 18  1  0  0  0  0
 18 19  1  0  0  0  0
 19 20  1  0  0  0  0
 20 25  2  0  0  0  0
 20 21  1  0  0  0  0
 21 22  2  0  0  0  0
 22 23  1  0  0  0  0
 23 24  2  0  0  0  0
 24 25  1  0  0  0  0
  4 26  1  0  0  0  0
 26 27  1  0  0  0  0
 26 28  1  0  0  0  0
M  END
> <ID>
244044

$$$$
243397
  -OEChem-05171416412D

 28 29  0     1  0  0  0  0  0999 V2000
    5.2079    4.9899    0.0000 C   0  0  0  0  0  0  0  0  0  0  0  0
    4.3404    4.4925    0.0000 C   0  0  0  0  0  0  0  0  0  0  0  0
    4.3375    3.4925    0.0000 C   0  0  0  0  0  0  0  0  0  0  0  0
    3.4759    4.9950    0.0000 N   0  0  0  0  0  0  0  0  0  0  0  0
    2.6084    4.4976    0.0000 C   0  0  0  0  0  0  0  0  0  0  0  0
    2.6054    3.4976    0.0000 C   0  0  3  0  0  0  0  0  0  0  0  0
    3.4700    2.9950    0.0000 O   0  0  0  0  0  0  0  0  0  0  0  0
    1.7379    3.0001    0.0000 C   0  0  0  0  0  0  0  0  0  0  0  0
    1.7350    2.0001    0.0000 O   0  0  0  0  0  0  0  0  0  0  0  0
    0.8675    1.5027    0.0000 C   0  0  0  0  0  0  0  0  0  0  0  0
    0.8675    0.4975    0.0000 C   0  0  0  0  0  0  0  0  0  0  0  0
    0.0000    0.0000    0.0000 C   0  0  0  0  0  0  0  0  0  0  0  0
   -0.8675    0.4975    0.0000 C   0  0  0  0  0  0  0  0  0  0  0  0
   -0.8675    1.5027    0.0000 C   0  0  0  0  0  0  0  0  0  0  0  0
    0.0000    2.0104    0.0000 C   0  0  0  0  0  0  0  0  0  0  0  0
   -1.7328   -0.0038    0.0000 C   0  0  0  0  0  0  0  0  0  0  0  0
   -2.5995    0.4950    0.0000 O   0  0  0  0  0  0  0  0  0  0  0  0
   -1.7313   -1.0038    0.0000 C   0  0  0  0  0  0  0  0  0  0  0  0
   -2.5966   -1.5050    0.0000 C   0  0  0  0  0  0  0  0  0  0  0  0
   -2.5952   -2.5050    0.0000 C   0  0  0  0  0  0  0  0  0  0  0  0
   -1.7225   -3.0038    0.0000 C   0  0  0  0  0  0  0  0  0  0  0  0
   -1.7210   -4.0038    0.0000 C   0  0  0  0  0  0  0  0  0  0  0  0
   -2.5833   -4.5101    0.0000 C   0  0  0  0  0  0  0  0  0  0  0  0
   -3.4561   -4.0114    0.0000 C   0  0  0  0  0  0  0  0  0  0  0  0
   -3.4664   -3.0063    0.0000 C   0  0  0  0  0  0  0  0  0  0  0  0
    3.4788    5.9950    0.0000 C   0  0  0  0  0  0  0  0  0  0  0  0
    2.6143    6.4976    0.0000 C   0  0  0  0  0  0  0  0  0  0  0  0
    4.3463    6.4925    0.0000 C   0  0  0  0  0  0  0  0  0  0  0  0
  1  2  1  0  0  0  0
  2  3  1  0  0  0  0
  2  4  1  0  0  0  0
  4  5  1  0  0  0  0
  5  6  1  0  0  0  0
  6  7  1  0  0  0  0
  6  8  1  0  0  0  0
  8  9  1  0  0  0  0
  9 10  1  0  0  0  0
 10 15  2  0  0  0  0
 10 11  1  0  0  0  0
 11 12  2  0  0  0  0
 12 13  1  0  0  0  0
 13 14  2  0  0  0  0
 14 15  1  0  0  0  0
 13 16  1  0  0  0  0
 16 17  2  0  0  0  0
 16 18  1  0  0  0  0
 18 19  1  0  0  0  0
 19 20  1  0  0  0  0
 20 25  2  0  0  0  0
 20 21  1  0  0  0  0
 21 22  2  0  0  0  0
 22 23  1  0  0  0  0
 23 24  2  0  0  0  0
 24 25  1  0  0  0  0
  4 26  1  0  0  0  0
 26 27  1  0  0  0  0
 26 28  1  0  0  0  0
M  END
> <ID>
243397

$$$$
244516
  -OEChem-05171416412D

 34 37  0     1  0  0  0  0  0999 V2000
   -0.8647    2.5126    0.0000 O   0  0  0  0  0  0  0  0  0  0  0  0
    0.0014    3.0126    0.0000 C   0  0  3  0  0  0  0  0  0  0  0  0
    0.0014    4.0126    0.0000 C   0  0  0  0  0  0  0  0  0  0  0  0
   -0.8647    4.5126    0.0000 O   0  0  0  0  0  0  0  0  0  0  0  0
   -0.8647    5.5126    0.0000 C   0  0  0  0  0  0  0  0  0  0  0  0
    0.0074    6.0126    0.0000 C   0  0  0  0  0  0  0  0  0  0  0  0
    0.0074    7.0127    0.0000 C   0  0  0  0  0  0  0  0  0  0  0  0
   -0.8557    7.5177    0.0000 C   0  0  0  0  0  0  0  0  0  0  0  0
   -1.7277    7.0177    0.0000 C   0  0  0  0  0  0  0  0  0  0  0  0
   -1.7366    6.0126    0.0000 C   0  0  0  0  0  0  0  0  0  0  0  0
   -2.5908    7.5228    0.0000 C   0  0  0  0  0  0  0  0  0  0  0  0
   -2.5849    8.5228    0.0000 O   0  0  0  0  0  0  0  0  0  0  0  0
   -3.4597    7.0279    0.0000 C   0  0  0  0  0  0  0  0  0  0  0  0
   -4.3228    7.5330    0.0000 C   0  0  0  0  0  0  0  0  0  0  0  0
   -5.1918    7.0381    0.0000 C   0  0  0  0  0  0  0  0  0  0  0  0
   -5.1947    6.0330    0.0000 C   0  0  0  0  0  0  0  0  0  0  0  0
   -6.0637    5.5380    0.0000 C   0  0  0  0  0  0  0  0  0  0  0  0
   -6.9297    6.0381    0.0000 C   0  0  0  0  0  0  0  0  0  0  0  0
   -6.9267    7.0433    0.0000 C   0  0  0  0  0  0  0  0  0  0  0  0
   -6.0578    7.5484    0.0000 C   0  0  0  0  0  0  0  0  0  0  0  0
    0.8674    2.5126    0.0000 C   0  0  0  0  0  0  0  0  0  0  0  0
    0.8674    1.5126    0.0000 N   0  0  0  0  0  0  0  0  0  0  0  0
    0.0000    1.0051    0.0000 C   0  0  0  0  0  0  0  0  0  0  0  0
    0.0000    0.0000    0.0000 C   0  0  0  0  0  0  0  0  0  0  0  0
    0.8674   -0.4976    0.0000 N   0  0  0  0  0  0  0  0  0  0  0  0
    1.7348    0.0000    0.0000 C   0  0  0  0  0  0  0  0  0  0  0  0
    1.7348    1.0051    0.0000 C   0  0  0  0  0  0  0  0  0  0  0  0
    0.8674   -1.4976    0.0000 C   0  0  0  0  0  0  0  0  0  0  0  0
    1.7394   -1.9976    0.0000 C   0  0  0  0  0  0  0  0  0  0  0  0
    1.7395   -2.9977    0.0000 C   0  0  0  0  0  0  0  0  0  0  0  0
    0.8763   -3.5027    0.0000 C   0  0  0  0  0  0  0  0  0  0  0  0
    0.8807   -4.5027    0.0000 F   0  0  0  0  0  0  0  0  0  0  0  0
    0.0043   -3.0027    0.0000 C   0  0  0  0  0  0  0  0  0  0  0  0
   -0.0046   -1.9976    0.0000 C   0  0  0  0  0  0  0  0  0  0  0  0
  1  2  1  0  0  0  0
  2  3  1  0  0  0  0
  3  4  1  0  0  0  0
  4  5  1  0  0  0  0
  5 10  2  0  0  0  0
  5  6  1  0  0  0  0
  6  7  2  0  0  0  0
  7  8  1  0  0  0  0
  8  9  2  0  0  0  0
  9 10  1  0  0  0  0
  9 11  1  0  0  0  0
 11 12  2  0  0  0  0
 11 13  1  0  0  0  0
 13 14  1  0  0  0  0
 14 15  1  0  0  0  0
 15 20  2  0  0  0  0
 15 16  1  0  0  0  0
 16 17  2  0  0  0  0
 17 18  1  0  0  0  0
 18 19  2  0  0  0  0
 19 20  1  0  0  0  0
  2 21  1  0  0  0  0
 21 22  1  0  0  0  0
 22 27  1  0  0  0  0
 22 23  1  0  0  0  0
 23 24  1  0  0  0  0
 24 25  1  0  0  0  0
 25 26  1  0  0  0  0
 26 27  1  0  0  0  0
 25 28  1  0  0  0  0
 28 34  2  0  0  0  0
 28 29  1  0  0  0  0
 29 30  2  0  0  0  0
 30 31  1  0  0  0  0
 31 32  1  0  0  0  0
 31 33  2  0  0  0  0
 33 34  1  0  0  0  0
M  END
> <ID>
244516

$$$$
244125
  -OEChem-05171416412D

 35 38  0     1  0  0  0  0  0999 V2000
   -3.4657    4.0100    0.0000 C   0  0  0  0  0  0  0  0  0  0  0  0
   -2.6004    4.5113    0.0000 O   0  0  0  0  0  0  0  0  0  0  0  0
   -2.6019    5.5113    0.0000 C   0  0  3  0  0  0  0  0  0  0  0  0
   -3.4687    6.0100    0.0000 C   0  0  0  0  0  0  0  0  0  0  0  0
   -4.3340    5.5087    0.0000 C   0  0  0  0  0  0  0  0  0  0  0  0
   -5.2008    6.0074    0.0000 C   0  0  0  0  0  0  0  0  0  0  0  0
   -6.0690    5.5010    0.0000 C   0  0  0  0  0  0  0  0  0  0  0  0
   -6.9359    5.9996    0.0000 C   0  0  0  0  0  0  0  0  0  0  0  0
   -6.9432    6.9996    0.0000 C   0  0  0  0  0  0  0  0  0  0  0  0
   -6.0749    7.5061    0.0000 C   0  0  0  0  0  0  0  0  0  0  0  0
   -5.1993    7.0126    0.0000 C   0  0  0  0  0  0  0  0  0  0  0  0
   -1.7367    6.0126    0.0000 C   0  0  0  0  0  0  0  0  0  0  0  0
   -1.7367    7.0127    0.0000 C   0  0  0  0  0  0  0  0  0  0  0  0
   -0.8736    7.5177    0.0000 C   0  0  0  0  0  0  0  0  0  0  0  0
   -0.0016    7.0177    0.0000 C   0  0  0  0  0  0  0  0  0  0  0  0
    0.0073    6.0126    0.0000 C   0  0  0  0  0  0  0  0  0  0  0  0
   -0.8647    5.5126    0.0000 C   0  0  0  0  0  0  0  0  0  0  0  0
   -0.8647    4.5126    0.0000 O   0  0  0  0  0  0  0  0  0  0  0  0
    0.0014    4.0126    0.0000 C   0  0  0  0  0  0  0  0  0  0  0  0
    0.0014    3.0126    0.0000 C   0  0  3  0  0  0  0  0  0  0  0  0
   -0.8647    2.5126    0.0000 O   0  0  0  0  0  0  0  0  0  0  0  0
    0.8674    2.5126    0.0000 C   0  0  0  0  0  0  0  0  0  0  0  0
    0.8674    1.5126    0.0000 N   0  0  0  0  0  0  0  0  0  0  0  0
    0.0000    1.0051    0.0000 C   0  0  0  0  0  0  0  0  0  0  0  0
    0.0000    0.0000    0.0000 C   0  0  0  0  0  0  0  0  0  0  0  0
    0.8674   -0.4976    0.0000 N   0  0  0  0  0  0  0  0  0  0  0  0
    1.7348    0.0000    0.0000 C   0  0  0  0  0  0  0  0  0  0  0  0
    1.7348    1.0051    0.0000 C   0  0  0  0  0  0  0  0  0  0  0  0
    0.8674   -1.4976    0.0000 C   0  0  0  0  0  0  0  0  0  0  0  0
    1.7394   -1.9976    0.0000 C   0  0  0  0  0  0  0  0  0  0  0  0
    1.7395   -2.9977    0.0000 C   0  0  0  0  0  0  0  0  0  0  0  0
    0.8763   -3.5027    0.0000 C   0  0  0  0  0  0  0  0  0  0  0  0
    0.8807   -4.5027    0.0000 F   0  0  0  0  0  0  0  0  0  0  0  0
    0.0043   -3.0027    0.0000 C   0  0  0  0  0  0  0  0  0  0  0  0
   -0.0046   -1.9976    0.0000 C   0  0  0  0  0  0  0  0  0  0  0  0
  1  2  1  0  0  0  0
  2  3  1  0  0  0  0
  3  4  1  0  0  0  0
  4  5  1  0  0  0  0
  5  6  1  0  0  0  0
  6 11  2  0  0  0  0
  6  7  1  0  0  0  0
  7  8  2  0  0  0  0
  8  9  1  0  0  0  0
  9 10  2  0  0  0  0
 10 11  1  0  0  0  0
  3 12  1  0  0  0  0
 12 17  2  0  0  0  0
 12 13  1  0  0  0  0
 13 14  2  0  0  0  0
 14 15  1  0  0  0  0
 15 16  2  0  0  0  0
 16 17  1  0  0  0  0
 17 18  1  0  0  0  0
 18 19  1  0  0  0  0
 19 20  1  0  0  0  0
 20 21  1  0  0  0  0
 20 22  1  0  0  0  0
 22 23  1  0  0  0  0
 23 28  1  0  0  0  0
 23 24  1  0  0  0  0
 24 25  1  0  0  0  0
 25 26  1  0  0  0  0
 26 27  1  0  0  0  0
 27 28  1  0  0  0  0
 26 29  1  0  0  0  0
 29 35  2  0  0  0  0
 29 30  1  0  0  0  0
 30 31  2  0  0  0  0
 31 32  1  0  0  0  0
 32 33  1  0  0  0  0
 32 34  2  0  0  0  0
 34 35  1  0  0  0  0
M  END
> <ID>
244125

$$$$
243399
  -OEChem-05171416412D

 34 37  0     1  0  0  0  0  0999 V2000
   -0.8647    2.5126    0.0000 O   0  0  0  0  0  0  0  0  0  0  0  0
    0.0014    3.0126    0.0000 C   0  0  3  0  0  0  0  0  0  0  0  0
    0.0014    4.0126    0.0000 C   0  0  0  0  0  0  0  0  0  0  0  0
   -0.8647    4.5126    0.0000 O   0  0  0  0  0  0  0  0  0  0  0  0
   -0.8647    5.5126    0.0000 C   0  0  0  0  0  0  0  0  0  0  0  0
   -1.7300    6.0139    0.0000 C   0  0  0  0  0  0  0  0  0  0  0  0
   -1.7343    7.0139    0.0000 C   0  0  0  0  0  0  0  0  0  0  0  0
   -0.8645    7.5178    0.0000 C   0  0  0  0  0  0  0  0  0  0  0  0
    0.0096    7.0216    0.0000 C   0  0  0  0  0  0  0  0  0  0  0  0
    0.0051    6.0165    0.0000 C   0  0  0  0  0  0  0  0  0  0  0  0
    0.8704    5.5152    0.0000 C   0  0  3  0  0  0  0  0  0  0  0  0
    0.8689    4.5152    0.0000 O   0  0  0  0  0  0  0  0  0  0  0  0
    1.7372    6.0139    0.0000 C   0  0  0  0  0  0  0  0  0  0  0  0
    2.6025    5.5126    0.0000 C   0  0  0  0  0  0  0  0  0  0  0  0
    3.4692    6.0113    0.0000 C   0  0  0  0  0  0  0  0  0  0  0  0
    3.4678    7.0165    0.0000 C   0  0  0  0  0  0  0  0  0  0  0  0
    4.3346    7.5152    0.0000 C   0  0  0  0  0  0  0  0  0  0  0  0
    5.2028    7.0190    0.0000 C   0  0  0  0  0  0  0  0  0  0  0  0
    5.2042    6.0138    0.0000 C   0  0  0  0  0  0  0  0  0  0  0  0
    4.3375    5.5048    0.0000 C   0  0  0  0  0  0  0  0  0  0  0  0
    0.8674    2.5126    0.0000 C   0  0  0  0  0  0  0  0  0  0  0  0
    0.8674    1.5126    0.0000 N   0  0  0  0  0  0  0  0  0  0  0  0
    0.0000    1.0051    0.0000 C   0  0  0  0  0  0  0  0  0  0  0  0
    0.0000    0.0000    0.0000 C   0  0  0  0  0  0  0  0  0  0  0  0
    0.8674   -0.4976    0.0000 N   0  0  0  0  0  0  0  0  0  0  0  0
    1.7348    0.0000    0.0000 C   0  0  0  0  0  0  0  0  0  0  0  0
    1.7348    1.0051    0.0000 C   0  0  0  0  0  0  0  0  0  0  0  0
    0.8674   -1.4976    0.0000 C   0  0  0  0  0  0  0  0  0  0  0  0
    1.7394   -1.9976    0.0000 C   0  0  0  0  0  0  0  0  0  0  0  0
    1.7395   -2.9977    0.0000 C   0  0  0  0  0  0  0  0  0  0  0  0
    0.8763   -3.5027    0.0000 C   0  0  0  0  0  0  0  0  0  0  0  0
    0.8807   -4.5027    0.0000 F   0  0  0  0  0  0  0  0  0  0  0  0
    0.0043   -3.0027    0.0000 C   0  0  0  0  0  0  0  0  0  0  0  0
   -0.0046   -1.9976    0.0000 C   0  0  0  0  0  0  0  0  0  0  0  0
  1  2  1  0  0  0  0
  2  3  1  0  0  0  0
  3  4  1  0  0  0  0
  4  5  1  0  0  0  0
  5 10  2  0  0  0  0
  5  6  1  0  0  0  0
  6  7  2  0  0  0  0
  7  8  1  0  0  0  0
  8  9  2  0  0  0  0
  9 10  1  0  0  0  0
 10 11  1  0  0  0  0
 11 12  1  0  0  0  0
 11 13  1  0  0  0  0
 13 14  1  0  0  0  0
 14 15  1  0  0  0  0
 15 20  2  0  0  0  0
 15 16  1  0  0  0  0
 16 17  2  0  0  0  0
 17 18  1  0  0  0  0
 18 19  2  0  0  0  0
 19 20  1  0  0  0  0
  2 21  1  0  0  0  0
 21 22  1  0  0  0  0
 22 27  1  0  0  0  0
 22 23  1  0  0  0  0
 23 24  1  0  0  0  0
 24 25  1  0  0  0  0
 25 26  1  0  0  0  0
 26 27  1  0  0  0  0
 25 28  1  0  0  0  0
 28 34  2  0  0  0  0
 28 29  1  0  0  0  0
 29 30  2  0  0  0  0
 30 31  1  0  0  0  0
 31 32  1  0  0  0  0
 31 33  2  0  0  0  0
 33 34  1  0  0  0  0
M  END
> <ID>
243399

$$$$
243803
  -OEChem-05171416412D

 27 29  0     1  0  0  0  0  0999 V2000
    2.5996   -1.4975    0.0000 O   0  0  0  0  0  0  0  0  0  0  0  0
    1.7335   -1.9975    0.0000 C   0  0  3  0  0  0  0  0  0  0  0  0
    1.7335   -2.9975    0.0000 C   0  0  0  0  0  0  0  0  0  0  0  0
    2.5996   -3.4975    0.0000 O   0  0  0  0  0  0  0  0  0  0  0  0
    2.5996   -4.4975    0.0000 C   0  0  0  0  0  0  0  0  0  0  0  0
    3.4716   -4.9975    0.0000 C   0  0  0  0  0  0  0  0  0  0  0  0
    3.4716   -5.9976    0.0000 C   0  0  0  0  0  0  0  0  0  0  0  0
    2.6085   -6.5026    0.0000 C   0  0  0  0  0  0  0  0  0  0  0  0
    1.7365   -6.0026    0.0000 C   0  0  0  0  0  0  0  0  0  0  0  0
    1.7276   -4.9975    0.0000 C   0  0  0  0  0  0  0  0  0  0  0  0
    2.6129   -7.5026    0.0000 C   0  0  0  0  0  0  0  0  0  0  0  0
    1.7491   -8.0064    0.0000 O   0  0  0  0  0  0  0  0  0  0  0  0
    3.4811   -7.9988    0.0000 C   0  0  0  0  0  0  0  0  0  0  0  0
    3.4855   -8.9988    0.0000 C   0  0  0  0  0  0  0  0  0  0  0  0
    4.3537   -9.4950    0.0000 C   0  0  0  0  0  0  0  0  0  0  0  0
    5.2205   -8.9860    0.0000 C   0  0  0  0  0  0  0  0  0  0  0  0
    6.0888   -9.4822    0.0000 C   0  0  0  0  0  0  0  0  0  0  0  0
    6.0991  -10.4821    0.0000 C   0  0  0  0  0  0  0  0  0  0  0  0
    5.2323  -10.9911    0.0000 C   0  0  0  0  0  0  0  0  0  0  0  0
    4.3552  -10.5001    0.0000 C   0  0  0  0  0  0  0  0  0  0  0  0
    0.8675   -1.4975    0.0000 C   0  0  0  0  0  0  0  0  0  0  0  0
    0.8675   -0.4975    0.0000 N   0  0  0  0  0  0  0  0  0  0  0  0
    0.0000    0.0000    0.0000 C   0  0  0  0  0  0  0  0  0  0  0  0
   -0.0000    1.0052    0.0000 C   0  0  0  0  0  0  0  0  0  0  0  0
    0.8675    1.5129    0.0000 O   0  0  0  0  0  0  0  0  0  0  0  0
    1.7350    1.0052    0.0000 C   0  0  0  0  0  0  0  0  0  0  0  0
    1.7350    0.0000    0.0000 C   0  0  0  0  0  0  0  0  0  0  0  0
  1  2  1  0  0  0  0
  2  3  1  0  0  0  0
  3  4  1  0  0  0  0
  4  5  1  0  0  0  0
  5 10  2  0  0  0  0
  5  6  1  0  0  0  0
  6  7  2  0  0  0  0
  7  8  1  0  0  0  0
  8  9  2  0  0  0  0
  9 10  1  0  0  0  0
  8 11  1  0  0  0  0
 11 12  2  0  0  0  0
 11 13  1  0  0  0  0
 13 14  1  0  0  0  0
 14 15  1  0  0  0  0
 15 20  2  0  0  0  0
 15 16  1  0  0  0  0
 16 17  2  0  0  0  0
 17 18  1  0  0  0  0
 18 19  2  0  0  0  0
 19 20  1  0  0  0  0
  2 21  1  0  0  0  0
 21 22  1  0  0  0  0
 22 27  1  0  0  0  0
 22 23  1  0  0  0  0
 23 24  1  0  0  0  0
 24 25  1  0  0  0  0
 25 26  1  0  0  0  0
 26 27  1  0  0  0  0
M  END
> <ID>
243803

$$$$
244517
  -OEChem-05171416412D

 27 29  0     1  0  0  0  0  0999 V2000
   -1.7321    3.0104    0.0000 O   0  0  0  0  0  0  0  0  0  0  0  0
   -0.8660    3.5104    0.0000 C   0  0  3  0  0  0  0  0  0  0  0  0
   -0.8660    4.5104    0.0000 C   0  0  0  0  0  0  0  0  0  0  0  0
   -1.7321    5.0104    0.0000 O   0  0  0  0  0  0  0  0  0  0  0  0
   -1.7321    6.0104    0.0000 C   0  0  0  0  0  0  0  0  0  0  0  0
   -0.8600    6.5104    0.0000 C   0  0  0  0  0  0  0  0  0  0  0  0
   -0.8600    7.5105    0.0000 C   0  0  0  0  0  0  0  0  0  0  0  0
   -1.7231    8.0155    0.0000 C   0  0  0  0  0  0  0  0  0  0  0  0
   -2.5951    7.5155    0.0000 C   0  0  0  0  0  0  0  0  0  0  0  0
   -2.6040    6.5104    0.0000 C   0  0  0  0  0  0  0  0  0  0  0  0
   -3.4582    8.0206    0.0000 C   0  0  0  0  0  0  0  0  0  0  0  0
   -3.4523    9.0206    0.0000 O   0  0  0  0  0  0  0  0  0  0  0  0
   -4.3271    7.5257    0.0000 C   0  0  0  0  0  0  0  0  0  0  0  0
   -5.1902    8.0308    0.0000 C   0  0  0  0  0  0  0  0  0  0  0  0
   -6.0592    7.5359    0.0000 C   0  0  0  0  0  0  0  0  0  0  0  0
   -6.0621    6.5308    0.0000 C   0  0  0  0  0  0  0  0  0  0  0  0
   -6.9311    6.0358    0.0000 C   0  0  0  0  0  0  0  0  0  0  0  0
   -7.7971    6.5359    0.0000 C   0  0  0  0  0  0  0  0  0  0  0  0
   -7.7941    7.5411    0.0000 C   0  0  0  0  0  0  0  0  0  0  0  0
   -6.9252    8.0462    0.0000 C   0  0  0  0  0  0  0  0  0  0  0  0
   -0.0000    3.0104    0.0000 C   0  0  0  0  0  0  0  0  0  0  0  0
   -0.0000    2.0104    0.0000 N   0  0  0  0  0  0  0  0  0  0  0  0
   -0.8675    1.5027    0.0000 C   0  0  0  0  0  0  0  0  0  0  0  0
   -0.8675    0.4975    0.0000 C   0  0  0  0  0  0  0  0  0  0  0  0
    0.0000    0.0000    0.0000 C   0  0  0  0  0  0  0  0  0  0  0  0
    0.8675    0.4975    0.0000 C   0  0  0  0  0  0  0  0  0  0  0  0
    0.8675    1.5027    0.0000 C   0  0  0  0  0  0  0  0  0  0  0  0
  1  2  1  0  0  0  0
  2  3  1  0  0  0  0
  3  4  1  0  0  0  0
  4  5  1  0  0  0  0
  5 10  2  0  0  0  0
  5  6  1  0  0  0  0
  6  7  2  0  0  0  0
  7  8  1  0  0  0  0
  8  9  2  0  0  0  0
  9 10  1  0  0  0  0
  9 11  1  0  0  0  0
 11 12  2  0  0  0  0
 11 13  1  0  0  0  0
 13 14  1  0  0  0  0
 14 15  1  0  0  0  0
 15 20  2  0  0  0  0
 15 16  1  0  0  0  0
 16 17  2  0  0  0  0
 17 18  1  0  0  0  0
 18 19  2  0  0  0  0
 19 20  1  0  0  0  0
  2 21  1  0  0  0  0
 21 22  1  0  0  0  0
 22 27  1  0  0  0  0
 22 23  1  0  0  0  0
 23 24  1  0  0  0  0
 24 25  1  0  0  0  0
 25 26  1  0  0  0  0
 26 27  1  0  0  0  0
M  END
> <ID>
244517

$$$$
243398
  -OEChem-05171416412D

 34 37  0     1  0  0  0  0  0999 V2000
   -0.8647    2.5126    0.0000 O   0  0  0  0  0  0  0  0  0  0  0  0
    0.0014    3.0126    0.0000 C   0  0  3  0  0  0  0  0  0  0  0  0
    0.0014    4.0126    0.0000 C   0  0  0  0  0  0  0  0  0  0  0  0
   -0.8647    4.5126    0.0000 O   0  0  0  0  0  0  0  0  0  0  0  0
   -0.8647    5.5126    0.0000 C   0  0  0  0  0  0  0  0  0  0  0  0
   -1.7367    6.0126    0.0000 C   0  0  0  0  0  0  0  0  0  0  0  0
   -1.7367    7.0127    0.0000 C   0  0  0  0  0  0  0  0  0  0  0  0
   -0.8736    7.5177    0.0000 C   0  0  0  0  0  0  0  0  0  0  0  0
   -0.0016    7.0177    0.0000 C   0  0  0  0  0  0  0  0  0  0  0  0
    0.0073    6.0126    0.0000 C   0  0  0  0  0  0  0  0  0  0  0  0
   -0.8780    8.5177    0.0000 C   0  0  0  0  0  0  0  0  0  0  0  0
   -0.0142    9.0215    0.0000 O   0  0  0  0  0  0  0  0  0  0  0  0
   -1.7462    9.0139    0.0000 C   0  0  0  0  0  0  0  0  0  0  0  0
   -1.7506   10.0139    0.0000 C   0  0  0  0  0  0  0  0  0  0  0  0
   -2.6188   10.5101    0.0000 C   0  0  0  0  0  0  0  0  0  0  0  0
   -3.4856   10.0011    0.0000 C   0  0  0  0  0  0  0  0  0  0  0  0
   -4.3539   10.4973    0.0000 C   0  0  0  0  0  0  0  0  0  0  0  0
   -4.3642   11.4972    0.0000 C   0  0  0  0  0  0  0  0  0  0  0  0
   -3.4974   12.0062    0.0000 C   0  0  0  0  0  0  0  0  0  0  0  0
   -2.6203   11.5152    0.0000 C   0  0  0  0  0  0  0  0  0  0  0  0
    0.8674    2.5126    0.0000 C   0  0  0  0  0  0  0  0  0  0  0  0
    0.8674    1.5126    0.0000 N   0  0  0  0  0  0  0  0  0  0  0  0
    0.0000    1.0051    0.0000 C   0  0  0  0  0  0  0  0  0  0  0  0
    0.0000    0.0000    0.0000 C   0  0  0  0  0  0  0  0  0  0  0  0
    0.8674   -0.4976    0.0000 N   0  0  0  0  0  0  0  0  0  0  0  0
    1.7348    0.0000    0.0000 C   0  0  0  0  0  0  0  0  0  0  0  0
    1.7348    1.0051    0.0000 C   0  0  0  0  0  0  0  0  0  0  0  0
    0.8674   -1.4976    0.0000 C   0  0  0  0  0  0  0  0  0  0  0  0
    1.7394   -1.9976    0.0000 C   0  0  0  0  0  0  0  0  0  0  0  0
    1.7395   -2.9977    0.0000 C   0  0  0  0  0  0  0  0  0  0  0  0
    0.8763   -3.5027    0.0000 C   0  0  0  0  0  0  0  0  0  0  0  0
    0.8807   -4.5027    0.0000 F   0  0  0  0  0  0  0  0  0  0  0  0
    0.0043   -3.0027    0.0000 C   0  0  0  0  0  0  0  0  0  0  0  0
   -0.0046   -1.9976    0.0000 C   0  0  0  0  0  0  0  0  0  0  0  0
  1  2  1  0  0  0  0
  2  3  1  0  0  0  0
  3  4  1  0  0  0  0
  4  5  1  0  0  0  0
  5 10  2  0  0  0  0
  5  6  1  0  0  0  0
  6  7  2  0  0  0  0
  7  8  1  0  0  0  0
  8  9  2  0  0  0  0
  9 10  1  0  0  0  0
  8 11  1  0  0  0  0
 11 12  2  0  0  0  0
 11 13  1  0  0  0  0
 13 14  1  0  0  0  0
 14 15  1  0  0  0  0
 15 20  2  0  0  0  0
 15 16  1  0  0  0  0
 16 17  2  0  0  0  0
 17 18  1  0  0  0  0
 18 19  2  0  0  0  0
 19 20  1  0  0  0  0
  2 21  1  0  0  0  0
 21 22  1  0  0  0  0
 22 27  1  0  0  0  0
 22 23  1  0  0  0  0
 23 24  1  0  0  0  0
 24 25  1  0  0  0  0
 25 26  1  0  0  0  0
 26 27  1  0  0  0  0
 25 28  1  0  0  0  0
 28 34  2  0  0  0  0
 28 29  1  0  0  0  0
 29 30  2  0  0  0  0
 30 31  1  0  0  0  0
 31 32  1  0  0  0  0
 31 33  2  0  0  0  0
 33 34  1  0  0  0  0
M  END
> <ID>
243398

$$$$
243859
  -OEChem-05171416412D

 26 27  0     1  0  0  0  0  0999 V2000
   -6.0586   -4.5063    0.0000 C   0  0  0  0  0  0  0  0  0  0  0  0
   -6.0600   -3.5063    0.0000 C   0  0  0  0  0  0  0  0  0  0  0  0
   -5.1947   -3.0050    0.0000 C   0  0  0  0  0  0  0  0  0  0  0  0
   -5.1962   -2.0050    0.0000 N   0  0  0  0  0  0  0  0  0  0  0  0
   -4.3309   -1.5038    0.0000 C   0  0  0  0  0  0  0  0  0  0  0  0
   -3.4641   -2.0025    0.0000 C   0  0  3  0  0  0  0  0  0  0  0  0
   -3.4627   -3.0025    0.0000 O   0  0  0  0  0  0  0  0  0  0  0  0
   -2.5988   -1.5013    0.0000 C   0  0  0  0  0  0  0  0  0  0  0  0
   -2.6003   -0.5013    0.0000 O   0  0  0  0  0  0  0  0  0  0  0  0
   -1.7350   -0.0000    0.0000 C   0  0  0  0  0  0  0  0  0  0  0  0
   -0.8675   -0.4975    0.0000 C   0  0  0  0  0  0  0  0  0  0  0  0
    0.0000    0.0000    0.0000 C   0  0  0  0  0  0  0  0  0  0  0  0
   -0.0000    1.0052    0.0000 C   0  0  0  0  0  0  0  0  0  0  0  0
    0.8675    1.5026    0.0000 O   0  0  0  0  0  0  0  0  0  0  0  0
   -0.8675    1.5129    0.0000 C   0  0  0  0  0  0  0  0  0  0  0  0
   -1.7350    1.0052    0.0000 C   0  0  0  0  0  0  0  0  0  0  0  0
   -2.6025    1.5026    0.0000 C   0  0  0  0  0  0  0  0  0  0  0  0
   -2.6054    2.5026    0.0000 O   0  0  0  0  0  0  0  0  0  0  0  0
   -3.4670    1.0001    0.0000 C   0  0  0  0  0  0  0  0  0  0  0  0
   -4.3345    1.4975    0.0000 C   0  0  0  0  0  0  0  0  0  0  0  0
   -5.1991    0.9950    0.0000 C   0  0  0  0  0  0  0  0  0  0  0  0
   -5.1932   -0.0102    0.0000 C   0  0  0  0  0  0  0  0  0  0  0  0
   -6.0577   -0.5128    0.0000 C   0  0  0  0  0  0  0  0  0  0  0  0
   -6.9281   -0.0204    0.0000 C   0  0  0  0  0  0  0  0  0  0  0  0
   -6.9341    0.9847    0.0000 C   0  0  0  0  0  0  0  0  0  0  0  0
   -6.0696    1.4976    0.0000 C   0  0  0  0  0  0  0  0  0  0  0  0
  1  2  1  0  0  0  0
  2  3  1  0  0  0  0
  3  4  1  0  0  0  0
  4  5  1  0  0  0  0
  5  6  1  0  0  0  0
  6  7  1  0  0  0  0
  6  8  1  0  0  0  0
  8  9  1  0  0  0  0
  9 10  1  0  0  0  0
 10 16  2  0  0  0  0
 10 11  1  0  0  0  0
 11 12  2  0  0  0  0
 12 13  1  0  0  0  0
 13 14  1  0  0  0  0
 13 15  2  0  0  0  0
 15 16  1  0  0  0  0
 16 17  1  0  0  0  0
 17 18  2  0  0  0  0
 17 19  1  0  0  0  0
 19 20  1  0  0  0  0
 20 21  1  0  0  0  0
 21 26  2  0  0  0  0
 21 22  1  0  0  0  0
 22 23  2  0  0  0  0
 23 24  1  0  0  0  0
 24 25  2  0  0  0  0
 25 26  1  0  0  0  0
M  END
> <ID>
243859

$$$$
372321
  -OEChem-05171416412D

 34 37  0     1  0  0  0  0  0999 V2000
   -1.7321    3.0104    0.0000 O   0  0  0  0  0  0  0  0  0  0  0  0
   -0.8660    3.5104    0.0000 C   0  0  3  0  0  0  0  0  0  0  0  0
   -0.8660    4.5104    0.0000 C   0  0  0  0  0  0  0  0  0  0  0  0
   -1.7321    5.0104    0.0000 O   0  0  0  0  0  0  0  0  0  0  0  0
   -1.7321    6.0104    0.0000 C   0  0  0  0  0  0  0  0  0  0  0  0
   -2.5974    6.5117    0.0000 C   0  0  0  0  0  0  0  0  0  0  0  0
   -2.6017    7.5117    0.0000 C   0  0  0  0  0  0  0  0  0  0  0  0
   -1.7319    8.0156    0.0000 C   0  0  0  0  0  0  0  0  0  0  0  0
   -0.8578    7.5194    0.0000 C   0  0  0  0  0  0  0  0  0  0  0  0
   -0.8623    6.5143    0.0000 C   0  0  0  0  0  0  0  0  0  0  0  0
    0.0030    6.0130    0.0000 C   0  0  0  0  0  0  0  0  0  0  0  0
    0.0015    5.0130    0.0000 O   0  0  0  0  0  0  0  0  0  0  0  0
    0.8698    6.5117    0.0000 C   0  0  0  0  0  0  0  0  0  0  0  0
    1.7351    6.0104    0.0000 C   0  0  0  0  0  0  0  0  0  0  0  0
    2.6018    6.5091    0.0000 C   0  0  0  0  0  0  0  0  0  0  0  0
    2.6004    7.5143    0.0000 C   0  0  0  0  0  0  0  0  0  0  0  0
    3.4672    8.0130    0.0000 C   0  0  0  0  0  0  0  0  0  0  0  0
    4.3354    7.5168    0.0000 C   0  0  0  0  0  0  0  0  0  0  0  0
    4.3368    6.5116    0.0000 C   0  0  0  0  0  0  0  0  0  0  0  0
    3.4701    6.0026    0.0000 C   0  0  0  0  0  0  0  0  0  0  0  0
   -0.0000    3.0104    0.0000 C   0  0  0  0  0  0  0  0  0  0  0  0
   -0.0000    2.0104    0.0000 N   0  0  0  0  0  0  0  0  0  0  0  0
   -0.8675    1.5027    0.0000 C   0  0  0  0  0  0  0  0  0  0  0  0
   -0.8675    0.4975    0.0000 C   0  0  0  0  0  0  0  0  0  0  0  0
    0.0000    0.0000    0.0000 C   0  0  0  0  0  0  0  0  0  0  0  0
    0.0000   -1.0000    0.0000 C   0  0  0  0  0  0  0  0  0  0  0  0
    0.8660   -1.5000    0.0000 C   0  0  0  0  0  0  0  0  0  0  0  0
    1.7351   -0.9948    0.0000 C   0  0  0  0  0  0  0  0  0  0  0  0
    2.6011   -1.4948    0.0000 C   0  0  0  0  0  0  0  0  0  0  0  0
    2.6070   -2.4948    0.0000 C   0  0  0  0  0  0  0  0  0  0  0  0
    1.7380   -3.0000    0.0000 C   0  0  0  0  0  0  0  0  0  0  0  0
    0.8631   -2.5051    0.0000 C   0  0  0  0  0  0  0  0  0  0  0  0
    0.8675    0.4975    0.0000 C   0  0  0  0  0  0  0  0  0  0  0  0
    0.8675    1.5027    0.0000 C   0  0  0  0  0  0  0  0  0  0  0  0
  1  2  1  0  0  0  0
  2  3  1  0  0  0  0
  3  4  1  0  0  0  0
  4  5  1  0  0  0  0
  5 10  2  0  0  0  0
  5  6  1  0  0  0  0
  6  7  2  0  0  0  0
  7  8  1  0  0  0  0
  8  9  2  0  0  0  0
  9 10  1  0  0  0  0
 10 11  1  0  0  0  0
 11 12  2  0  0  0  0
 11 13  1  0  0  0  0
 13 14  1  0  0  0  0
 14 15  1  0  0  0  0
 15 20  2  0  0  0  0
 15 16  1  0  0  0  0
 16 17  2  0  0  0  0
 17 18  1  0  0  0  0
 18 19  2  0  0  0  0
 19 20  1  0  0  0  0
  2 21  1  0  0  0  0
 21 22  1  0  0  0  0
 22 34  1  0  0  0  0
 22 23  1  0  0  0  0
 23 24  1  0  0  0  0
 24 25  1  0  0  0  0
 25 26  1  0  0  0  0
 26 27  1  0  0  0  0
 27 32  2  0  0  0  0
 27 28  1  0  0  0  0
 28 29  2  0  0  0  0
 29 30  1  0  0  0  0
 30 31  2  0  0  0  0
 31 32  1  0  0  0  0
 25 33  1  0  0  0  0
 33 34  1  0  0  0  0
M  END
> <ID>
372321

$$$$
238309
  -OEChem-05171416412D

 34 38  0     1  0  0  0  0  0999 V2000
   -1.7367    3.0100    0.0000 C   0  0  0  0  0  0  0  0  0  0  0  0
   -0.8699    2.5113    0.0000 O   0  0  0  0  0  0  0  0  0  0  0  0
   -0.0046    3.0126    0.0000 C   0  0  0  0  0  0  0  0  0  0  0  0
   -0.0047    4.0127    0.0000 C   0  0  0  0  0  0  0  0  0  0  0  0
    0.8585    4.5177    0.0000 C   0  0  0  0  0  0  0  0  0  0  0  0
    1.7305    4.0177    0.0000 C   0  0  0  0  0  0  0  0  0  0  0  0
    1.7394    3.0126    0.0000 C   0  0  0  0  0  0  0  0  0  0  0  0
    0.8674    2.5126    0.0000 C   0  0  0  0  0  0  0  0  0  0  0  0
    0.8674    1.5126    0.0000 N   0  0  0  0  0  0  0  0  0  0  0  0
    0.0000    1.0051    0.0000 C   0  0  0  0  0  0  0  0  0  0  0  0
    0.0000    0.0000    0.0000 C   0  0  0  0  0  0  0  0  0  0  0  0
    0.8674   -0.4976    0.0000 N   0  0  0  0  0  0  0  0  0  0  0  0
    0.8674   -1.4976    0.0000 C   0  0  0  0  0  0  0  0  0  0  0  0
    1.7334   -1.9976    0.0000 C   0  0  3  0  0  0  0  0  0  0  0  0
    2.5995   -1.4976    0.0000 O   0  0  0  0  0  0  0  0  0  0  0  0
    1.7334   -2.9976    0.0000 C   0  0  0  0  0  0  0  0  0  0  0  0
    0.9188   -3.5896    0.0000 O   0  0  0  0  0  0  0  0  0  0  0  0
    1.2298   -4.5474    0.0000 C   0  0  0  0  0  0  0  0  0  0  0  0
    0.7218   -5.4153    0.0000 C   0  0  0  0  0  0  0  0  0  0  0  0
    1.2297   -6.2834    0.0000 C   0  0  0  0  0  0  0  0  0  0  0  0
    2.2355   -6.2834    0.0000 C   0  0  0  0  0  0  0  0  0  0  0  0
    2.7334   -5.4155    0.0000 C   0  0  0  0  0  0  0  0  0  0  0  0
    2.2368   -4.5474    0.0000 C   0  0  0  0  0  0  0  0  0  0  0  0
    2.5482   -3.5896    0.0000 C   0  0  0  0  0  0  0  0  0  0  0  0
    3.4993   -3.2807    0.0000 C   0  0  0  0  0  0  0  0  0  0  0  0
    3.7073   -2.3026    0.0000 C   0  0  0  0  0  0  0  0  0  0  0  0
    4.6584   -1.9937    0.0000 C   0  0  0  0  0  0  0  0  0  0  0  0
    4.8646   -1.0099    0.0000 C   0  0  0  0  0  0  0  0  0  0  0  0
    5.8157   -0.7009    0.0000 C   0  0  0  0  0  0  0  0  0  0  0  0
    6.5627   -1.3658    0.0000 C   0  0  0  0  0  0  0  0  0  0  0  0
    6.3565   -2.3496    0.0000 C   0  0  0  0  0  0  0  0  0  0  0  0
    5.4033   -2.6685    0.0000 C   0  0  0  0  0  0  0  0  0  0  0  0
    1.7348    0.0000    0.0000 C   0  0  0  0  0  0  0  0  0  0  0  0
    1.7348    1.0051    0.0000 C   0  0  0  0  0  0  0  0  0  0  0  0
  1  2  1  0  0  0  0
  2  3  1  0  0  0  0
  3  8  2  0  0  0  0
  3  4  1  0  0  0  0
  4  5  2  0  0  0  0
  5  6  1  0  0  0  0
  6  7  2  0  0  0  0
  7  8  1  0  0  0  0
  8  9  1  0  0  0  0
  9 34  1  0  0  0  0
  9 10  1  0  0  0  0
 10 11  1  0  0  0  0
 11 12  1  0  0  0  0
 12 13  1  0  0  0  0
 13 14  1  0  0  0  0
 14 15  1  0  0  0  0
 14 16  1  0  0  0  0
 16 24  2  0  0  0  0
 16 17  1  0  0  0  0
 17 18  1  0  0  0  0
 18 23  2  0  0  0  0
 18 19  1  0  0  0  0
 19 20  2  0  0  0  0
 20 21  1  0  0  0  0
 21 22  2  0  0  0  0
 22 23  1  0  0  0  0
 23 24  1  0  0  0  0
 24 25  1  0  0  0  0
 25 26  1  0  0  0  0
 26 27  1  0  0  0  0
 27 32  2  0  0  0  0
 27 28  1  0  0  0  0
 28 29  2  0  0  0  0
 29 30  1  0  0  0  0
 30 31  2  0  0  0  0
 31 32  1  0  0  0  0
 12 33  1  0  0  0  0
 33 34  1  0  0  0  0
M  END
> <ID>
238309

$$$$
372316
  -OEChem-05171416412D

 25 27  0     1  0  0  0  0  0999 V2000
    8.2857    2.2346    0.0000 C   0  0  0  0  0  0  0  0  0  0  0  0
    7.2857    2.2346    0.0000 C   0  0  0  0  0  0  0  0  0  0  0  0
    6.7857    1.3685    0.0000 C   0  0  0  0  0  0  0  0  0  0  0  0
    5.7857    1.3685    0.0000 N   0  0  0  0  0  0  0  0  0  0  0  0
    5.2858    0.5024    0.0000 C   0  0  0  0  0  0  0  0  0  0  0  0
    4.2858    0.5024    0.0000 C   0  0  1  0  0  0  0  0  0  0  0  0
    4.2859   -0.4976    0.0000 H   0  0  0  0  0  0  0  0  0  0  0  0
    4.2857    1.5024    0.0000 O   0  0  0  0  0  0  0  0  0  0  0  0
    3.2858    0.5023    0.0000 C   0  0  0  0  0  0  0  0  0  0  0  0
    2.6938    1.3169    0.0000 O   0  0  0  0  0  0  0  0  0  0  0  0
    1.7360    1.0058    0.0000 C   0  0  0  0  0  0  0  0  0  0  0  0
    0.8680    1.5138    0.0000 C   0  0  0  0  0  0  0  0  0  0  0  0
    0.0000    1.0058    0.0000 C   0  0  0  0  0  0  0  0  0  0  0  0
    0.0000    0.0000    0.0000 C   0  0  0  0  0  0  0  0  0  0  0  0
    0.8680   -0.4978    0.0000 C   0  0  0  0  0  0  0  0  0  0  0  0
    1.7360   -0.0012    0.0000 C   0  0  0  0  0  0  0  0  0  0  0  0
    2.6938   -0.3125    0.0000 C   0  0  0  0  0  0  0  0  0  0  0  0
    3.0028   -1.2636    0.0000 C   0  0  0  0  0  0  0  0  0  0  0  0
    3.9809   -1.4715    0.0000 C   0  0  0  0  0  0  0  0  0  0  0  0
    4.2899   -2.4226    0.0000 C   0  0  0  0  0  0  0  0  0  0  0  0
    5.2737   -2.6287    0.0000 C   0  0  0  0  0  0  0  0  0  0  0  0
    5.5827   -3.5798    0.0000 C   0  0  0  0  0  0  0  0  0  0  0  0
    4.9179   -4.3269    0.0000 C   0  0  0  0  0  0  0  0  0  0  0  0
    3.9341   -4.1207    0.0000 C   0  0  0  0  0  0  0  0  0  0  0  0
    3.6151   -3.1676    0.0000 C   0  0  0  0  0  0  0  0  0  0  0  0
  1  2  1  0  0  0  0
  2  3  1  0  0  0  0
  3  4  1  0  0  0  0
  4  5  1  0  0  0  0
  5  6  1  0  0  0  0
  6  7  1  1  0  0  0
  6  8  1  0  0  0  0
  6  9  1  0  0  0  0
  9 17  2  0  0  0  0
  9 10  1  0  0  0  0
 10 11  1  0  0  0  0
 11 16  2  0  0  0  0
 11 12  1  0  0  0  0
 12 13  2  0  0  0  0
 13 14  1  0  0  0  0
 14 15  2  0  0  0  0
 15 16  1  0  0  0  0
 16 17  1  0  0  0  0
 17 18  1  0  0  0  0
 18 19  1  0  0  0  0
 19 20  1  0  0  0  0
 20 25  2  0  0  0  0
 20 21  1  0  0  0  0
 21 22  2  0  0  0  0
 22 23  1  0  0  0  0
 23 24  2  0  0  0  0
 24 25  1  0  0  0  0
M  END
> <ID>
372316

$$$$
372315
  -OEChem-05171416412D

 25 27  0     1  0  0  0  0  0999 V2000
    8.2857    2.2346    0.0000 C   0  0  0  0  0  0  0  0  0  0  0  0
    7.2857    2.2346    0.0000 C   0  0  0  0  0  0  0  0  0  0  0  0
    6.7857    1.3685    0.0000 C   0  0  0  0  0  0  0  0  0  0  0  0
    5.7857    1.3685    0.0000 N   0  0  0  0  0  0  0  0  0  0  0  0
    5.2858    0.5024    0.0000 C   0  0  0  0  0  0  0  0  0  0  0  0
    4.2858    0.5024    0.0000 C   0  0  2  0  0  0  0  0  0  0  0  0
    4.2859   -0.4976    0.0000 H   0  0  0  0  0  0  0  0  0  0  0  0
    4.2857    1.5024    0.0000 O   0  0  0  0  0  0  0  0  0  0  0  0
    3.2858    0.5023    0.0000 C   0  0  0  0  0  0  0  0  0  0  0  0
    2.6938    1.3169    0.0000 O   0  0  0  0  0  0  0  0  0  0  0  0
    1.7360    1.0058    0.0000 C   0  0  0  0  0  0  0  0  0  0  0  0
    0.8680    1.5138    0.0000 C   0  0  0  0  0  0  0  0  0  0  0  0
    0.0000    1.0058    0.0000 C   0  0  0  0  0  0  0  0  0  0  0  0
    0.0000    0.0000    0.0000 C   0  0  0  0  0  0  0  0  0  0  0  0
    0.8680   -0.4978    0.0000 C   0  0  0  0  0  0  0  0  0  0  0  0
    1.7360   -0.0012    0.0000 C   0  0  0  0  0  0  0  0  0  0  0  0
    2.6938   -0.3125    0.0000 C   0  0  0  0  0  0  0  0  0  0  0  0
    3.0028   -1.2636    0.0000 C   0  0  0  0  0  0  0  0  0  0  0  0
    3.9809   -1.4715    0.0000 C   0  0  0  0  0  0  0  0  0  0  0  0
    4.2899   -2.4226    0.0000 C   0  0  0  0  0  0  0  0  0  0  0  0
    5.2737   -2.6287    0.0000 C   0  0  0  0  0  0  0  0  0  0  0  0
    5.5827   -3.5798    0.0000 C   0  0  0  0  0  0  0  0  0  0  0  0
    4.9179   -4.3269    0.0000 C   0  0  0  0  0  0  0  0  0  0  0  0
    3.9341   -4.1207    0.0000 C   0  0  0  0  0  0  0  0  0  0  0  0
    3.6151   -3.1676    0.0000 C   0  0  0  0  0  0  0  0  0  0  0  0
  1  2  1  0  0  0  0
  2  3  1  0  0  0  0
  3  4  1  0  0  0  0
  4  5  1  0  0  0  0
  5  6  1  0  0  0  0
  6  7  1  6  0  0  0
  6  8  1  0  0  0  0
  6  9  1  0  0  0  0
  9 17  2  0  0  0  0
  9 10  1  0  0  0  0
 10 11  1  0  0  0  0
 11 16  2  0  0  0  0
 11 12  1  0  0  0  0
 12 13  2  0  0  0  0
 13 14  1  0  0  0  0
 14 15  2  0  0  0  0
 15 16  1  0  0  0  0
 16 17  1  0  0  0  0
 17 18  1  0  0  0  0
 18 19  1  0  0  0  0
 19 20  1  0  0  0  0
 20 25  2  0  0  0  0
 20 21  1  0  0  0  0
 21 22  2  0  0  0  0
 22 23  1  0  0  0  0
 23 24  2  0  0  0  0
 24 25  1  0  0  0  0
M  END
> <ID>
372315

$$$$
238219
  -OEChem-05171416412D

 18 19  0     1  0  0  0  0  0999 V2000
    7.7860   -2.0955    0.0000 C   0  0  0  0  0  0  0  0  0  0  0  0
    7.2859   -1.2295    0.0000 C   0  0  0  0  0  0  0  0  0  0  0  0
    6.2859   -1.2296    0.0000 C   0  0  0  0  0  0  0  0  0  0  0  0
    5.7859   -0.3636    0.0000 N   0  0  0  0  0  0  0  0  0  0  0  0
    4.7859   -0.3636    0.0000 C   0  0  0  0  0  0  0  0  0  0  0  0
    4.2858    0.5024    0.0000 C   0  0  3  0  0  0  0  0  0  0  0  0
    4.7857    1.3684    0.0000 O   0  0  0  0  0  0  0  0  0  0  0  0
    3.2858    0.5023    0.0000 C   0  0  0  0  0  0  0  0  0  0  0  0
    2.6938    1.3169    0.0000 O   0  0  0  0  0  0  0  0  0  0  0  0
    1.7360    1.0058    0.0000 C   0  0  0  0  0  0  0  0  0  0  0  0
    0.8680    1.5138    0.0000 C   0  0  0  0  0  0  0  0  0  0  0  0
    0.0000    1.0058    0.0000 C   0  0  0  0  0  0  0  0  0  0  0  0
    0.0000    0.0000    0.0000 C   0  0  0  0  0  0  0  0  0  0  0  0
    0.8680   -0.4978    0.0000 C   0  0  0  0  0  0  0  0  0  0  0  0
    1.7360   -0.0012    0.0000 C   0  0  0  0  0  0  0  0  0  0  0  0
    2.6938   -0.3125    0.0000 C   0  0  0  0  0  0  0  0  0  0  0  0
    3.0028   -1.2636    0.0000 C   0  0  0  0  0  0  0  0  0  0  0  0
    3.9809   -1.4715    0.0000 C   0  0  0  0  0  0  0  0  0  0  0  0
  1  2  1  0  0  0  0
  2  3  1  0  0  0  0
  3  4  1  0  0  0  0
  4  5  1  0  0  0  0
  5  6  1  0  0  0  0
  6  7  1  0  0  0  0
  6  8  1  0  0  0  0
  8 16  2  0  0  0  0
  8  9  1  0  0  0  0
  9 10  1  0  0  0  0
 10 15  2  0  0  0  0
 10 11  1  0  0  0  0
 11 12  2  0  0  0  0
 12 13  1  0  0  0  0
 13 14  2  0  0  0  0
 14 15  1  0  0  0  0
 15 16  1  0  0  0  0
 16 17  1  0  0  0  0
 17 18  1  0  0  0  0
M  END
> <ID>
238219

$$$$
372311
  -OEChem-05171416412D

 25 28  0     0  0  0  0  0  0999 V2000
   -0.0000    3.0104    0.0000 C   0  0  0  0  0  0  0  0  0  0  0  0
    0.8660    3.5104    0.0000 C   0  0  0  0  0  0  0  0  0  0  0  0
    0.8660    4.5104    0.0000 C   0  0  0  0  0  0  0  0  0  0  0  0
    1.6807    5.1024    0.0000 O   0  0  0  0  0  0  0  0  0  0  0  0
    1.3696    6.0602    0.0000 C   0  0  0  0  0  0  0  0  0  0  0  0
    1.8777    6.9281    0.0000 C   0  0  0  0  0  0  0  0  0  0  0  0
    1.3697    7.7962    0.0000 C   0  0  0  0  0  0  0  0  0  0  0  0
    0.3639    7.7962    0.0000 C   0  0  0  0  0  0  0  0  0  0  0  0
   -0.1339    6.9283    0.0000 C   0  0  0  0  0  0  0  0  0  0  0  0
    0.3626    6.0602    0.0000 C   0  0  0  0  0  0  0  0  0  0  0  0
    0.0513    5.1024    0.0000 C   0  0  0  0  0  0  0  0  0  0  0  0
   -0.8998    4.7935    0.0000 C   0  0  0  0  0  0  0  0  0  0  0  0
   -1.1078    3.8154    0.0000 C   0  0  0  0  0  0  0  0  0  0  0  0
   -2.0589    3.5065    0.0000 C   0  0  0  0  0  0  0  0  0  0  0  0
   -2.2651    2.5227    0.0000 C   0  0  0  0  0  0  0  0  0  0  0  0
   -3.2162    2.2137    0.0000 C   0  0  0  0  0  0  0  0  0  0  0  0
   -3.9632    2.8786    0.0000 C   0  0  0  0  0  0  0  0  0  0  0  0
   -3.7570    3.8624    0.0000 C   0  0  0  0  0  0  0  0  0  0  0  0
   -2.8038    4.1813    0.0000 C   0  0  0  0  0  0  0  0  0  0  0  0
   -0.0000    2.0104    0.0000 N   0  0  0  0  0  0  0  0  0  0  0  0
   -0.8675    1.5027    0.0000 C   0  0  0  0  0  0  0  0  0  0  0  0
   -0.8675    0.4975    0.0000 C   0  0  0  0  0  0  0  0  0  0  0  0
    0.0000    0.0000    0.0000 C   0  0  0  0  0  0  0  0  0  0  0  0
    0.8675    0.4975    0.0000 C   0  0  0  0  0  0  0  0  0  0  0  0
    0.8675    1.5027    0.0000 C   0  0  0  0  0  0  0  0  0  0  0  0
  1  2  1  0  0  0  0
  2  3  1  0  0  0  0
  3 11  2  0  0  0  0
  3  4  1  0  0  0  0
  4  5  1  0  0  0  0
  5 10  2  0  0  0  0
  5  6  1  0  0  0  0
  6  7  2  0  0  0  0
  7  8  1  0  0  0  0
  8  9  2  0  0  0  0
  9 10  1  0  0  0  0
 10 11  1  0  0  0  0
 11 12  1  0  0  0  0
 12 13  1  0  0  0  0
 13 14  1  0  0  0  0
 14 19  2  0  0  0  0
 14 15  1  0  0  0  0
 15 16  2  0  0  0  0
 16 17  1  0  0  0  0
 17 18  2  0  0  0  0
 18 19  1  0  0  0  0
  1 20  1  0  0  0  0
 20 25  1  0  0  0  0
 20 21  1  0  0  0  0
 21 22  1  0  0  0  0
 22 23  1  0  0  0  0
 23 24  1  0  0  0  0
 24 25  1  0  0  0  0
M  END
> <ID>
372311

$$$$
244126
  -OEChem-05171416412D

 28 30  0     1  0  0  0  0  0999 V2000
   -4.3331    4.5078    0.0000 C   0  0  0  0  0  0  0  0  0  0  0  0
   -3.4678    5.0091    0.0000 O   0  0  0  0  0  0  0  0  0  0  0  0
   -3.4693    6.0091    0.0000 C   0  0  3  0  0  0  0  0  0  0  0  0
   -4.3361    6.5078    0.0000 C   0  0  0  0  0  0  0  0  0  0  0  0
   -5.2014    6.0065    0.0000 C   0  0  0  0  0  0  0  0  0  0  0  0
   -6.0682    6.5052    0.0000 C   0  0  0  0  0  0  0  0  0  0  0  0
   -6.9364    5.9988    0.0000 C   0  0  0  0  0  0  0  0  0  0  0  0
   -7.8033    6.4974    0.0000 C   0  0  0  0  0  0  0  0  0  0  0  0
   -7.8106    7.4974    0.0000 C   0  0  0  0  0  0  0  0  0  0  0  0
   -6.9423    8.0039    0.0000 C   0  0  0  0  0  0  0  0  0  0  0  0
   -6.0667    7.5104    0.0000 C   0  0  0  0  0  0  0  0  0  0  0  0
   -2.6041    6.5104    0.0000 C   0  0  0  0  0  0  0  0  0  0  0  0
   -2.6041    7.5105    0.0000 C   0  0  0  0  0  0  0  0  0  0  0  0
   -1.7410    8.0155    0.0000 C   0  0  0  0  0  0  0  0  0  0  0  0
   -0.8690    7.5155    0.0000 C   0  0  0  0  0  0  0  0  0  0  0  0
   -0.8601    6.5104    0.0000 C   0  0  0  0  0  0  0  0  0  0  0  0
   -1.7321    6.0104    0.0000 C   0  0  0  0  0  0  0  0  0  0  0  0
   -1.7321    5.0104    0.0000 O   0  0  0  0  0  0  0  0  0  0  0  0
   -0.8660    4.5104    0.0000 C   0  0  0  0  0  0  0  0  0  0  0  0
   -0.8660    3.5104    0.0000 C   0  0  3  0  0  0  0  0  0  0  0  0
   -1.7321    3.0104    0.0000 O   0  0  0  0  0  0  0  0  0  0  0  0
   -0.0000    3.0104    0.0000 C   0  0  0  0  0  0  0  0  0  0  0  0
   -0.0000    2.0104    0.0000 N   0  0  0  0  0  0  0  0  0  0  0  0
   -0.8675    1.5027    0.0000 C   0  0  0  0  0  0  0  0  0  0  0  0
   -0.8675    0.4975    0.0000 C   0  0  0  0  0  0  0  0  0  0  0  0
    0.0000    0.0000    0.0000 C   0  0  0  0  0  0  0  0  0  0  0  0
    0.8675    0.4975    0.0000 C   0  0  0  0  0  0  0  0  0  0  0  0
    0.8675    1.5027    0.0000 C   0  0  0  0  0  0  0  0  0  0  0  0
  1  2  1  0  0  0  0
  2  3  1  0  0  0  0
  3  4  1  0  0  0  0
  4  5  1  0  0  0  0
  5  6  1  0  0  0  0
  6 11  2  0  0  0  0
  6  7  1  0  0  0  0
  7  8  2  0  0  0  0
  8  9  1  0  0  0  0
  9 10  2  0  0  0  0
 10 11  1  0  0  0  0
  3 12  1  0  0  0  0
 12 17  2  0  0  0  0
 12 13  1  0  0  0  0
 13 14  2  0  0  0  0
 14 15  1  0  0  0  0
 15 16  2  0  0  0  0
 16 17  1  0  0  0  0
 17 18  1  0  0  0  0
 18 19  1  0  0  0  0
 19 20  1  0  0  0  0
 20 21  1  0  0  0  0
 20 22  1  0  0  0  0
 22 23  1  0  0  0  0
 23 28  1  0  0  0  0
 23 24  1  0  0  0  0
 24 25  1  0  0  0  0
 25 26  1  0  0  0  0
 26 27  1  0  0  0  0
 27 28  1  0  0  0  0
M  END
> <ID>
244126

$$$$
243521
  -OEChem-05171416412D

 27 29  0     1  0  0  0  0  0999 V2000
   -1.7321    3.0104    0.0000 O   0  0  0  0  0  0  0  0  0  0  0  0
   -0.8660    3.5104    0.0000 C   0  0  3  0  0  0  0  0  0  0  0  0
   -0.8660    4.5104    0.0000 C   0  0  0  0  0  0  0  0  0  0  0  0
   -1.7321    5.0104    0.0000 O   0  0  0  0  0  0  0  0  0  0  0  0
   -1.7321    6.0104    0.0000 C   0  0  0  0  0  0  0  0  0  0  0  0
   -2.5974    6.5117    0.0000 C   0  0  0  0  0  0  0  0  0  0  0  0
   -2.6017    7.5117    0.0000 C   0  0  0  0  0  0  0  0  0  0  0  0
   -1.7319    8.0156    0.0000 C   0  0  0  0  0  0  0  0  0  0  0  0
   -0.8578    7.5194    0.0000 C   0  0  0  0  0  0  0  0  0  0  0  0
   -0.8623    6.5143    0.0000 C   0  0  0  0  0  0  0  0  0  0  0  0
    0.0030    6.0130    0.0000 C   0  0  3  0  0  0  0  0  0  0  0  0
    0.0015    5.0130    0.0000 O   0  0  0  0  0  0  0  0  0  0  0  0
    0.8698    6.5117    0.0000 C   0  0  0  0  0  0  0  0  0  0  0  0
    1.7351    6.0104    0.0000 C   0  0  0  0  0  0  0  0  0  0  0  0
    2.6018    6.5091    0.0000 C   0  0  0  0  0  0  0  0  0  0  0  0
    2.6004    7.5143    0.0000 C   0  0  0  0  0  0  0  0  0  0  0  0
    3.4672    8.0130    0.0000 C   0  0  0  0  0  0  0  0  0  0  0  0
    4.3354    7.5168    0.0000 C   0  0  0  0  0  0  0  0  0  0  0  0
    4.3368    6.5116    0.0000 C   0  0  0  0  0  0  0  0  0  0  0  0
    3.4701    6.0026    0.0000 C   0  0  0  0  0  0  0  0  0  0  0  0
   -0.0000    3.0104    0.0000 C   0  0  0  0  0  0  0  0  0  0  0  0
   -0.0000    2.0104    0.0000 N   0  0  0  0  0  0  0  0  0  0  0  0
   -0.8675    1.5027    0.0000 C   0  0  0  0  0  0  0  0  0  0  0  0
   -0.8675    0.4975    0.0000 C   0  0  0  0  0  0  0  0  0  0  0  0
    0.0000    0.0000    0.0000 C   0  0  0  0  0  0  0  0  0  0  0  0
    0.8675    0.4975    0.0000 C   0  0  0  0  0  0  0  0  0  0  0  0
    0.8675    1.5027    0.0000 C   0  0  0  0  0  0  0  0  0  0  0  0
  1  2  1  0  0  0  0
  2  3  1  0  0  0  0
  3  4  1  0  0  0  0
  4  5  1  0  0  0  0
  5 10  2  0  0  0  0
  5  6  1  0  0  0  0
  6  7  2  0  0  0  0
  7  8  1  0  0  0  0
  8  9  2  0  0  0  0
  9 10  1  0  0  0  0
 10 11  1  0  0  0  0
 11 12  1  0  0  0  0
 11 13  1  0  0  0  0
 13 14  1  0  0  0  0
 14 15  1  0  0  0  0
 15 20  2  0  0  0  0
 15 16  1  0  0  0  0
 16 17  2  0  0  0  0
 17 18  1  0  0  0  0
 18 19  2  0  0  0  0
 19 20  1  0  0  0  0
  2 21  1  0  0  0  0
 21 22  1  0  0  0  0
 22 27  1  0  0  0  0
 22 23  1  0  0  0  0
 23 24  1  0  0  0  0
 24 25  1  0  0  0  0
 25 26  1  0  0  0  0
 26 27  1  0  0  0  0
M  END
> <ID>
243521

$$$$
372337
  -OEChem-05171416412D

 35 38  0     1  0  0  0  0  0999 V2000
   -7.8034    7.5098    0.0000 C   0  0  0  0  0  0  0  0  0  0  0  0
   -6.9388    7.0073    0.0000 C   0  0  0  0  0  0  0  0  0  0  0  0
   -6.0683    7.5099    0.0000 C   0  0  0  0  0  0  0  0  0  0  0  0
   -5.2037    7.0075    0.0000 C   0  0  0  0  0  0  0  0  0  0  0  0
   -5.2008    6.0074    0.0000 C   0  0  0  0  0  0  0  0  0  0  0  0
   -4.3340    5.5087    0.0000 C   0  0  0  0  0  0  0  0  0  0  0  0
   -3.4687    6.0100    0.0000 C   0  0  0  0  0  0  0  0  0  0  0  0
   -2.6019    5.5113    0.0000 C   0  0  0  0  0  0  0  0  0  0  0  0
   -2.6004    4.5113    0.0000 O   0  0  0  0  0  0  0  0  0  0  0  0
   -1.7367    6.0126    0.0000 C   0  0  0  0  0  0  0  0  0  0  0  0
   -1.7367    7.0127    0.0000 C   0  0  0  0  0  0  0  0  0  0  0  0
   -0.8736    7.5177    0.0000 C   0  0  0  0  0  0  0  0  0  0  0  0
   -0.0016    7.0177    0.0000 C   0  0  0  0  0  0  0  0  0  0  0  0
    0.0073    6.0126    0.0000 C   0  0  0  0  0  0  0  0  0  0  0  0
   -0.8647    5.5126    0.0000 C   0  0  0  0  0  0  0  0  0  0  0  0
   -0.8647    4.5126    0.0000 O   0  0  0  0  0  0  0  0  0  0  0  0
    0.0014    4.0126    0.0000 C   0  0  0  0  0  0  0  0  0  0  0  0
    0.0014    3.0126    0.0000 C   0  0  3  0  0  0  0  0  0  0  0  0
   -0.8647    2.5126    0.0000 O   0  0  0  0  0  0  0  0  0  0  0  0
    0.8674    2.5126    0.0000 C   0  0  0  0  0  0  0  0  0  0  0  0
    0.8674    1.5126    0.0000 N   0  0  0  0  0  0  0  0  0  0  0  0
    0.0000    1.0051    0.0000 C   0  0  0  0  0  0  0  0  0  0  0  0
    0.0000    0.0000    0.0000 C   0  0  0  0  0  0  0  0  0  0  0  0
    0.8674   -0.4976    0.0000 N   0  0  0  0  0  0  0  0  0  0  0  0
    1.7348    0.0000    0.0000 C   0  0  0  0  0  0  0  0  0  0  0  0
    1.7348    1.0051    0.0000 C   0  0  0  0  0  0  0  0  0  0  0  0
    0.8674   -1.4976    0.0000 C   0  0  0  0  0  0  0  0  0  0  0  0
    1.7327   -1.9989    0.0000 C   0  0  0  0  0  0  0  0  0  0  0  0
    1.7371   -2.9989    0.0000 C   0  0  0  0  0  0  0  0  0  0  0  0
    0.8673   -3.5028    0.0000 C   0  0  0  0  0  0  0  0  0  0  0  0
   -0.0069   -3.0066    0.0000 C   0  0  0  0  0  0  0  0  0  0  0  0
   -0.0024   -2.0015    0.0000 C   0  0  0  0  0  0  0  0  0  0  0  0
   -0.8677   -1.5002    0.0000 C   0  0  0  0  0  0  0  0  0  0  0  0
   -6.0713    5.5048    0.0000 C   0  0  0  0  0  0  0  0  0  0  0  0
   -6.9447    6.0022    0.0000 C   0  0  0  0  0  0  0  0  0  0  0  0
  1  2  1  0  0  0  0
  2 35  2  0  0  0  0
  2  3  1  0  0  0  0
  3  4  2  0  0  0  0
  4  5  1  0  0  0  0
  5  6  1  0  0  0  0
  6  7  1  0  0  0  0
  7  8  1  0  0  0  0
  8  9  2  0  0  0  0
  8 10  1  0  0  0  0
 10 15  2  0  0  0  0
 10 11  1  0  0  0  0
 11 12  2  0  0  0  0
 12 13  1  0  0  0  0
 13 14  2  0  0  0  0
 14 15  1  0  0  0  0
 15 16  1  0  0  0  0
 16 17  1  0  0  0  0
 17 18  1  0  0  0  0
 18 19  1  0  0  0  0
 18 20  1  0  0  0  0
 20 21  1  0  0  0  0
 21 26  1  0  0  0  0
 21 22  1  0  0  0  0
 22 23  1  0  0  0  0
 23 24  1  0  0  0  0
 24 25  1  0  0  0  0
 25 26  1  0  0  0  0
 24 27  1  0  0  0  0
 27 32  2  0  0  0  0
 27 28  1  0  0  0  0
 28 29  2  0  0  0  0
 29 30  1  0  0  0  0
 30 31  2  0  0  0  0
 31 32  1  0  0  0  0
 32 33  1  0  0  0  0
  5 34  2  0  0  0  0
 34 35  1  0  0  0  0
M  END
> <ID>
372337

$$$$
372320
  -OEChem-05171416412D

 37 40  0     1  0  0  0  0  0999 V2000
    6.0607    0.4874    0.0000 O   0  0  0  0  0  0  0  0  0  0  0  0
    6.0636    1.4874    0.0000 C   0  0  3  0  0  0  0  0  0  0  0  0
    5.1991    1.9899    0.0000 C   0  0  0  0  0  0  0  0  0  0  0  0
    4.3316    1.4925    0.0000 N   0  0  0  0  0  0  0  0  0  0  0  0
    3.4670    1.9950    0.0000 C   0  0  0  0  0  0  0  0  0  0  0  0
    2.5995    1.4976    0.0000 C   0  0  0  0  0  0  0  0  0  0  0  0
    1.7350    2.0001    0.0000 C   0  0  0  0  0  0  0  0  0  0  0  0
    0.8675    1.5027    0.0000 C   0  0  0  0  0  0  0  0  0  0  0  0
    0.8675    0.4975    0.0000 C   0  0  0  0  0  0  0  0  0  0  0  0
    0.0000    0.0000    0.0000 C   0  0  0  0  0  0  0  0  0  0  0  0
   -0.8675    0.4975    0.0000 C   0  0  0  0  0  0  0  0  0  0  0  0
   -0.8675    1.5027    0.0000 C   0  0  0  0  0  0  0  0  0  0  0  0
    0.0000    2.0104    0.0000 C   0  0  0  0  0  0  0  0  0  0  0  0
    1.7379    3.0001    0.0000 C   0  0  0  0  0  0  0  0  0  0  0  0
    0.8674    3.5027    0.0000 C   0  0  0  0  0  0  0  0  0  0  0  0
    0.8703    4.5028    0.0000 C   0  0  0  0  0  0  0  0  0  0  0  0
    1.7349    5.0053    0.0000 C   0  0  0  0  0  0  0  0  0  0  0  0
    2.6054    4.5027    0.0000 C   0  0  0  0  0  0  0  0  0  0  0  0
    2.6114    3.4976    0.0000 C   0  0  0  0  0  0  0  0  0  0  0  0
    6.9311    1.9848    0.0000 C   0  0  0  0  0  0  0  0  0  0  0  0
    7.7957    1.4823    0.0000 O   0  0  0  0  0  0  0  0  0  0  0  0
    8.6632    1.9797    0.0000 C   0  0  0  0  0  0  0  0  0  0  0  0
    8.6632    2.9849    0.0000 C   0  0  0  0  0  0  0  0  0  0  0  0
    9.5307    3.4824    0.0000 C   0  0  0  0  0  0  0  0  0  0  0  0
   10.3982    2.9849    0.0000 C   0  0  0  0  0  0  0  0  0  0  0  0
   10.3982    1.9797    0.0000 C   0  0  0  0  0  0  0  0  0  0  0  0
    9.5307    1.4720    0.0000 C   0  0  0  0  0  0  0  0  0  0  0  0
   11.2635    3.4862    0.0000 C   0  0  0  0  0  0  0  0  0  0  0  0
   12.1302    2.9874    0.0000 O   0  0  0  0  0  0  0  0  0  0  0  0
   11.2620    4.4862    0.0000 C   0  0  0  0  0  0  0  0  0  0  0  0
   12.1273    4.9874    0.0000 C   0  0  0  0  0  0  0  0  0  0  0  0
   12.1259    5.9874    0.0000 C   0  0  0  0  0  0  0  0  0  0  0  0
   11.2531    6.4862    0.0000 C   0  0  0  0  0  0  0  0  0  0  0  0
   11.2516    7.4862    0.0000 C   0  0  0  0  0  0  0  0  0  0  0  0
   12.1140    7.9925    0.0000 C   0  0  0  0  0  0  0  0  0  0  0  0
   12.9867    7.4938    0.0000 C   0  0  0  0  0  0  0  0  0  0  0  0
   12.9971    6.4887    0.0000 C   0  0  0  0  0  0  0  0  0  0  0  0
  1  2  1  0  0  0  0
  2  3  1  0  0  0  0
  3  4  1  0  0  0  0
  4  5  1  0  0  0  0
  5  6  1  0  0  0  0
  6  7  1  0  0  0  0
  7  8  1  0  0  0  0
  8 13  2  0  0  0  0
  8  9  1  0  0  0  0
  9 10  2  0  0  0  0
 10 11  1  0  0  0  0
 11 12  2  0  0  0  0
 12 13  1  0  0  0  0
  7 14  1  0  0  0  0
 14 19  2  0  0  0  0
 14 15  1  0  0  0  0
 15 16  2  0  0  0  0
 16 17  1  0  0  0  0
 17 18  2  0  0  0  0
 18 19  1  0  0  0  0
  2 20  1  0  0  0  0
 20 21  1  0  0  0  0
 21 22  1  0  0  0  0
 22 27  2  0  0  0  0
 22 23  1  0  0  0  0
 23 24  2  0  0  0  0
 24 25  1  0  0  0  0
 25 26  2  0  0  0  0
 26 27  1  0  0  0  0
 25 28  1  0  0  0  0
 28 29  2  0  0  0  0
 28 30  1  0  0  0  0
 30 31  1  0  0  0  0
 31 32  1  0  0  0  0
 32 37  2  0  0  0  0
 32 33  1  0  0  0  0
 33 34  2  0  0  0  0
 34 35  1  0  0  0  0
 35 36  2  0  0  0  0
 36 37  1  0  0  0  0
M  END
> <ID>
372320

$$$$
372319
  -OEChem-05171416412D

 27 29  0     1  0  0  0  0  0999 V2000
    2.5996   -1.4975    0.0000 O   0  0  0  0  0  0  0  0  0  0  0  0
    1.7335   -1.9975    0.0000 C   0  0  3  0  0  0  0  0  0  0  0  0
    1.7335   -2.9975    0.0000 C   0  0  0  0  0  0  0  0  0  0  0  0
    2.5996   -3.4975    0.0000 O   0  0  0  0  0  0  0  0  0  0  0  0
    2.5996   -4.4975    0.0000 C   0  0  0  0  0  0  0  0  0  0  0  0
    1.7275   -4.9975    0.0000 C   0  0  0  0  0  0  0  0  0  0  0  0
    1.7275   -5.9976    0.0000 C   0  0  0  0  0  0  0  0  0  0  0  0
    2.5906   -6.5026    0.0000 C   0  0  0  0  0  0  0  0  0  0  0  0
    3.4626   -6.0026    0.0000 C   0  0  0  0  0  0  0  0  0  0  0  0
    3.4715   -4.9975    0.0000 C   0  0  0  0  0  0  0  0  0  0  0  0
    4.3257   -6.5077    0.0000 C   0  0  0  0  0  0  0  0  0  0  0  0
    4.3198   -7.5077    0.0000 O   0  0  0  0  0  0  0  0  0  0  0  0
    5.1946   -6.0128    0.0000 C   0  0  0  0  0  0  0  0  0  0  0  0
    6.0577   -6.5179    0.0000 C   0  0  0  0  0  0  0  0  0  0  0  0
    6.9267   -6.0230    0.0000 C   0  0  0  0  0  0  0  0  0  0  0  0
    6.9296   -5.0179    0.0000 C   0  0  0  0  0  0  0  0  0  0  0  0
    7.7986   -4.5229    0.0000 C   0  0  0  0  0  0  0  0  0  0  0  0
    8.6646   -5.0230    0.0000 C   0  0  0  0  0  0  0  0  0  0  0  0
    8.6616   -6.0282    0.0000 C   0  0  0  0  0  0  0  0  0  0  0  0
    7.7927   -6.5333    0.0000 C   0  0  0  0  0  0  0  0  0  0  0  0
    0.8675   -1.4975    0.0000 C   0  0  0  0  0  0  0  0  0  0  0  0
    0.8675   -0.4975    0.0000 N   0  0  0  0  0  0  0  0  0  0  0  0
    0.0000    0.0000    0.0000 C   0  0  0  0  0  0  0  0  0  0  0  0
   -0.0000    1.0052    0.0000 C   0  0  0  0  0  0  0  0  0  0  0  0
    0.8675    1.5129    0.0000 O   0  0  0  0  0  0  0  0  0  0  0  0
    1.7350    1.0052    0.0000 C   0  0  0  0  0  0  0  0  0  0  0  0
    1.7350    0.0000    0.0000 C   0  0  0  0  0  0  0  0  0  0  0  0
  1  2  1  0  0  0  0
  2  3  1  0  0  0  0
  3  4  1  0  0  0  0
  4  5  1  0  0  0  0
  5 10  2  0  0  0  0
  5  6  1  0  0  0  0
  6  7  2  0  0  0  0
  7  8  1  0  0  0  0
  8  9  2  0  0  0  0
  9 10  1  0  0  0  0
  9 11  1  0  0  0  0
 11 12  2  0  0  0  0
 11 13  1  0  0  0  0
 13 14  1  0  0  0  0
 14 15  1  0  0  0  0
 15 20  2  0  0  0  0
 15 16  1  0  0  0  0
 16 17  2  0  0  0  0
 17 18  1  0  0  0  0
 18 19  2  0  0  0  0
 19 20  1  0  0  0  0
  2 21  1  0  0  0  0
 21 22  1  0  0  0  0
 22 27  1  0  0  0  0
 22 23  1  0  0  0  0
 23 24  1  0  0  0  0
 24 25  1  0  0  0  0
 25 26  1  0  0  0  0
 26 27  1  0  0  0  0
M  END
> <ID>
372319

$$$$
372314
  -OEChem-05171416412D

 35 38  0     1  0  0  0  0  0999 V2000
    2.5935    4.5228    0.0000 C   0  0  0  0  0  0  0  0  0  0  0  0
    1.7305    4.0177    0.0000 C   0  0  0  0  0  0  0  0  0  0  0  0
    0.8585    4.5177    0.0000 C   0  0  0  0  0  0  0  0  0  0  0  0
   -0.0047    4.0127    0.0000 C   0  0  0  0  0  0  0  0  0  0  0  0
   -0.0046    3.0126    0.0000 C   0  0  0  0  0  0  0  0  0  0  0  0
    0.8674    2.5126    0.0000 C   0  0  0  0  0  0  0  0  0  0  0  0
    0.8674    1.5126    0.0000 N   0  0  0  0  0  0  0  0  0  0  0  0
    0.0000    1.0051    0.0000 C   0  0  0  0  0  0  0  0  0  0  0  0
    0.0000    0.0000    0.0000 C   0  0  0  0  0  0  0  0  0  0  0  0
    0.8674   -0.4976    0.0000 N   0  0  0  0  0  0  0  0  0  0  0  0
    0.8674   -1.4976    0.0000 C   0  0  0  0  0  0  0  0  0  0  0  0
    1.7334   -1.9976    0.0000 C   0  0  3  0  0  0  0  0  0  0  0  0
    2.5995   -1.4976    0.0000 O   0  0  0  0  0  0  0  0  0  0  0  0
    1.7334   -2.9976    0.0000 C   0  0  0  0  0  0  0  0  0  0  0  0
    2.5995   -3.4976    0.0000 O   0  0  0  0  0  0  0  0  0  0  0  0
    2.5995   -4.4976    0.0000 C   0  0  0  0  0  0  0  0  0  0  0  0
    1.7274   -4.9976    0.0000 C   0  0  0  0  0  0  0  0  0  0  0  0
    1.7274   -5.9977    0.0000 C   0  0  0  0  0  0  0  0  0  0  0  0
    2.5905   -6.5027    0.0000 C   0  0  0  0  0  0  0  0  0  0  0  0
    3.4625   -6.0027    0.0000 C   0  0  0  0  0  0  0  0  0  0  0  0
    3.4714   -4.9976    0.0000 C   0  0  0  0  0  0  0  0  0  0  0  0
    4.3256   -6.5078    0.0000 C   0  0  0  0  0  0  0  0  0  0  0  0
    4.3197   -7.5078    0.0000 O   0  0  0  0  0  0  0  0  0  0  0  0
    5.1945   -6.0129    0.0000 C   0  0  0  0  0  0  0  0  0  0  0  0
    6.0576   -6.5180    0.0000 C   0  0  0  0  0  0  0  0  0  0  0  0
    6.9266   -6.0231    0.0000 C   0  0  0  0  0  0  0  0  0  0  0  0
    6.9295   -5.0180    0.0000 C   0  0  0  0  0  0  0  0  0  0  0  0
    7.7985   -4.5230    0.0000 C   0  0  0  0  0  0  0  0  0  0  0  0
    8.6645   -5.0231    0.0000 C   0  0  0  0  0  0  0  0  0  0  0  0
    8.6615   -6.0283    0.0000 C   0  0  0  0  0  0  0  0  0  0  0  0
    7.7926   -6.5334    0.0000 C   0  0  0  0  0  0  0  0  0  0  0  0
    1.7348    0.0000    0.0000 C   0  0  0  0  0  0  0  0  0  0  0  0
    1.7348    1.0051    0.0000 C   0  0  0  0  0  0  0  0  0  0  0  0
    1.7394    3.0126    0.0000 C   0  0  0  0  0  0  0  0  0  0  0  0
    2.6069    2.5152    0.0000 C   0  0  0  0  0  0  0  0  0  0  0  0
  1  2  1  0  0  0  0
  2 34  2  0  0  0  0
  2  3  1  0  0  0  0
  3  4  2  0  0  0  0
  4  5  1  0  0  0  0
  5  6  2  0  0  0  0
  6  7  1  0  0  0  0
  7 33  1  0  0  0  0
  7  8  1  0  0  0  0
  8  9  1  0  0  0  0
  9 10  1  0  0  0  0
 10 11  1  0  0  0  0
 11 12  1  0  0  0  0
 12 13  1  0  0  0  0
 12 14  1  0  0  0  0
 14 15  1  0  0  0  0
 15 16  1  0  0  0  0
 16 21  2  0  0  0  0
 16 17  1  0  0  0  0
 17 18  2  0  0  0  0
 18 19  1  0  0  0  0
 19 20  2  0  0  0  0
 20 21  1  0  0  0  0
 20 22  1  0  0  0  0
 22 23  2  0  0  0  0
 22 24  1  0  0  0  0
 24 25  1  0  0  0  0
 25 26  1  0  0  0  0
 26 31  2  0  0  0  0
 26 27  1  0  0  0  0
 27 28  2  0  0  0  0
 28 29  1  0  0  0  0
 29 30  2  0  0  0  0
 30 31  1  0  0  0  0
 10 32  1  0  0  0  0
 32 33  1  0  0  0  0
  6 34  1  0  0  0  0
 34 35  1  0  0  0  0
M  END
> <ID>
372314

$$$$
372313
  -OEChem-05171416412D

 37 40  0     1  0  0  0  0  0999 V2000
    6.0607    0.4874    0.0000 O   0  0  0  0  0  0  0  0  0  0  0  0
    6.0636    1.4874    0.0000 C   0  0  3  0  0  0  0  0  0  0  0  0
    5.1991    1.9899    0.0000 C   0  0  0  0  0  0  0  0  0  0  0  0
    4.3316    1.4925    0.0000 N   0  0  0  0  0  0  0  0  0  0  0  0
    3.4670    1.9950    0.0000 C   0  0  0  0  0  0  0  0  0  0  0  0
    2.5995    1.4976    0.0000 C   0  0  0  0  0  0  0  0  0  0  0  0
    1.7350    2.0001    0.0000 C   0  0  0  0  0  0  0  0  0  0  0  0
    0.8675    1.5027    0.0000 C   0  0  0  0  0  0  0  0  0  0  0  0
    0.8675    0.4975    0.0000 C   0  0  0  0  0  0  0  0  0  0  0  0
    0.0000    0.0000    0.0000 C   0  0  0  0  0  0  0  0  0  0  0  0
   -0.8675    0.4975    0.0000 C   0  0  0  0  0  0  0  0  0  0  0  0
   -0.8675    1.5027    0.0000 C   0  0  0  0  0  0  0  0  0  0  0  0
    0.0000    2.0104    0.0000 C   0  0  0  0  0  0  0  0  0  0  0  0
    1.7379    3.0001    0.0000 C   0  0  0  0  0  0  0  0  0  0  0  0
    0.8674    3.5027    0.0000 C   0  0  0  0  0  0  0  0  0  0  0  0
    0.8703    4.5028    0.0000 C   0  0  0  0  0  0  0  0  0  0  0  0
    1.7349    5.0053    0.0000 C   0  0  0  0  0  0  0  0  0  0  0  0
    2.6054    4.5027    0.0000 C   0  0  0  0  0  0  0  0  0  0  0  0
    2.6114    3.4976    0.0000 C   0  0  0  0  0  0  0  0  0  0  0  0
    6.9311    1.9848    0.0000 C   0  0  0  0  0  0  0  0  0  0  0  0
    7.7957    1.4823    0.0000 O   0  0  0  0  0  0  0  0  0  0  0  0
    8.6632    1.9797    0.0000 C   0  0  0  0  0  0  0  0  0  0  0  0
    9.5307    1.4720    0.0000 C   0  0  0  0  0  0  0  0  0  0  0  0
   10.3983    1.9694    0.0000 C   0  0  0  0  0  0  0  0  0  0  0  0
   10.4071    2.9694    0.0000 C   0  0  0  0  0  0  0  0  0  0  0  0
    9.5395    3.4771    0.0000 C   0  0  0  0  0  0  0  0  0  0  0  0
    8.6632    2.9848    0.0000 C   0  0  0  0  0  0  0  0  0  0  0  0
    9.5484    4.4771    0.0000 C   0  0  0  0  0  0  0  0  0  0  0  0
   10.4188    4.9694    0.0000 O   0  0  0  0  0  0  0  0  0  0  0  0
    8.6868    4.9847    0.0000 C   0  0  0  0  0  0  0  0  0  0  0  0
    8.6957    5.9847    0.0000 C   0  0  0  0  0  0  0  0  0  0  0  0
    7.8341    6.4923    0.0000 C   0  0  0  0  0  0  0  0  0  0  0  0
    6.9606    5.9949    0.0000 C   0  0  0  0  0  0  0  0  0  0  0  0
    6.0990    6.5025    0.0000 C   0  0  0  0  0  0  0  0  0  0  0  0
    6.1020    7.5025    0.0000 C   0  0  0  0  0  0  0  0  0  0  0  0
    6.9755    8.0000    0.0000 C   0  0  0  0  0  0  0  0  0  0  0  0
    7.8460    7.4974    0.0000 C   0  0  0  0  0  0  0  0  0  0  0  0
  1  2  1  0  0  0  0
  2  3  1  0  0  0  0
  3  4  1  0  0  0  0
  4  5  1  0  0  0  0
  5  6  1  0  0  0  0
  6  7  1  0  0  0  0
  7  8  1  0  0  0  0
  8 13  2  0  0  0  0
  8  9  1  0  0  0  0
  9 10  2  0  0  0  0
 10 11  1  0  0  0  0
 11 12  2  0  0  0  0
 12 13  1  0  0  0  0
  7 14  1  0  0  0  0
 14 19  2  0  0  0  0
 14 15  1  0  0  0  0
 15 16  2  0  0  0  0
 16 17  1  0  0  0  0
 17 18  2  0  0  0  0
 18 19  1  0  0  0  0
  2 20  1  0  0  0  0
 20 21  1  0  0  0  0
 21 22  1  0  0  0  0
 22 27  2  0  0  0  0
 22 23  1  0  0  0  0
 23 24  2  0  0  0  0
 24 25  1  0  0  0  0
 25 26  2  0  0  0  0
 26 27  1  0  0  0  0
 26 28  1  0  0  0  0
 28 29  2  0  0  0  0
 28 30  1  0  0  0  0
 30 31  1  0  0  0  0
 31 32  1  0  0  0  0
 32 37  2  0  0  0  0
 32 33  1  0  0  0  0
 33 34  2  0  0  0  0
 34 35  1  0  0  0  0
 35 36  2  0  0  0  0
 36 37  1  0  0  0  0
M  END
> <ID>
372313

$$$$
372310
  -OEChem-05171416412D

 34 37  0     1  0  0  0  0  0999 V2000
   -0.8699    2.5113    0.0000 C   0  0  0  0  0  0  0  0  0  0  0  0
   -0.0046    3.0126    0.0000 C   0  0  0  0  0  0  0  0  0  0  0  0
   -0.0047    4.0127    0.0000 C   0  0  0  0  0  0  0  0  0  0  0  0
    0.8585    4.5177    0.0000 C   0  0  0  0  0  0  0  0  0  0  0  0
    1.7305    4.0177    0.0000 C   0  0  0  0  0  0  0  0  0  0  0  0
    1.7394    3.0126    0.0000 C   0  0  0  0  0  0  0  0  0  0  0  0
    0.8674    2.5126    0.0000 C   0  0  0  0  0  0  0  0  0  0  0  0
    0.8674    1.5126    0.0000 N   0  0  0  0  0  0  0  0  0  0  0  0
    0.0000    1.0051    0.0000 C   0  0  0  0  0  0  0  0  0  0  0  0
    0.0000    0.0000    0.0000 C   0  0  0  0  0  0  0  0  0  0  0  0
    0.8674   -0.4976    0.0000 N   0  0  0  0  0  0  0  0  0  0  0  0
    0.8674   -1.4976    0.0000 C   0  0  0  0  0  0  0  0  0  0  0  0
    1.7334   -1.9976    0.0000 C   0  0  3  0  0  0  0  0  0  0  0  0
    2.5995   -1.4976    0.0000 O   0  0  0  0  0  0  0  0  0  0  0  0
    1.7334   -2.9976    0.0000 C   0  0  0  0  0  0  0  0  0  0  0  0
    2.5995   -3.4976    0.0000 O   0  0  0  0  0  0  0  0  0  0  0  0
    2.5995   -4.4976    0.0000 C   0  0  0  0  0  0  0  0  0  0  0  0
    1.7274   -4.9976    0.0000 C   0  0  0  0  0  0  0  0  0  0  0  0
    1.7274   -5.9977    0.0000 C   0  0  0  0  0  0  0  0  0  0  0  0
    2.5905   -6.5027    0.0000 C   0  0  0  0  0  0  0  0  0  0  0  0
    3.4625   -6.0027    0.0000 C   0  0  0  0  0  0  0  0  0  0  0  0
    3.4714   -4.9976    0.0000 C   0  0  0  0  0  0  0  0  0  0  0  0
    4.3256   -6.5078    0.0000 C   0  0  0  0  0  0  0  0  0  0  0  0
    4.3197   -7.5078    0.0000 O   0  0  0  0  0  0  0  0  0  0  0  0
    5.1945   -6.0129    0.0000 C   0  0  0  0  0  0  0  0  0  0  0  0
    6.0576   -6.5180    0.0000 C   0  0  0  0  0  0  0  0  0  0  0  0
    6.9266   -6.0231    0.0000 C   0  0  0  0  0  0  0  0  0  0  0  0
    6.9295   -5.0180    0.0000 C   0  0  0  0  0  0  0  0  0  0  0  0
    7.7985   -4.5230    0.0000 C   0  0  0  0  0  0  0  0  0  0  0  0
    8.6645   -5.0231    0.0000 C   0  0  0  0  0  0  0  0  0  0  0  0
    8.6615   -6.0283    0.0000 C   0  0  0  0  0  0  0  0  0  0  0  0
    7.7926   -6.5334    0.0000 C   0  0  0  0  0  0  0  0  0  0  0  0
    1.7348    0.0000    0.0000 C   0  0  0  0  0  0  0  0  0  0  0  0
    1.7348    1.0051    0.0000 C   0  0  0  0  0  0  0  0  0  0  0  0
  1  2  1  0  0  0  0
  2  7  2  0  0  0  0
  2  3  1  0  0  0  0
  3  4  2  0  0  0  0
  4  5  1  0  0  0  0
  5  6  2  0  0  0  0
  6  7  1  0  0  0  0
  7  8  1  0  0  0  0
  8 34  1  0  0  0  0
  8  9  1  0  0  0  0
  9 10  1  0  0  0  0
 10 11  1  0  0  0  0
 11 12  1  0  0  0  0
 12 13  1  0  0  0  0
 13 14  1  0  0  0  0
 13 15  1  0  0  0  0
 15 16  1  0  0  0  0
 16 17  1  0  0  0  0
 17 22  2  0  0  0  0
 17 18  1  0  0  0  0
 18 19  2  0  0  0  0
 19 20  1  0  0  0  0
 20 21  2  0  0  0  0
 21 22  1  0  0  0  0
 21 23  1  0  0  0  0
 23 24  2  0  0  0  0
 23 25  1  0  0  0  0
 25 26  1  0  0  0  0
 26 27  1  0  0  0  0
 27 32  2  0  0  0  0
 27 28  1  0  0  0  0
 28 29  2  0  0  0  0
 29 30  1  0  0  0  0
 30 31  2  0  0  0  0
 31 32  1  0  0  0  0
 11 33  1  0  0  0  0
 33 34  1  0  0  0  0
M  END
> <ID>
372310

$$$$
372309
  -OEChem-05171416412D

 30 32  0     1  0  0  0  0  0999 V2000
    2.5995    1.4976    0.0000 C   0  0  0  0  0  0  0  0  0  0  0  0
    1.7350    2.0001    0.0000 C   0  0  0  0  0  0  0  0  0  0  0  0
    1.7379    3.0001    0.0000 O   0  0  0  0  0  0  0  0  0  0  0  0
    0.8675    1.5027    0.0000 C   0  0  0  0  0  0  0  0  0  0  0  0
    0.8675    0.4975    0.0000 C   0  0  0  0  0  0  0  0  0  0  0  0
    0.0000    0.0000    0.0000 C   0  0  0  0  0  0  0  0  0  0  0  0
   -0.8675    0.4975    0.0000 C   0  0  0  0  0  0  0  0  0  0  0  0
   -1.7328   -0.0038    0.0000 O   0  0  0  0  0  0  0  0  0  0  0  0
   -1.7313   -1.0038    0.0000 C   0  0  0  0  0  0  0  0  0  0  0  0
   -2.5966   -1.5050    0.0000 C   0  0  3  0  0  0  0  0  0  0  0  0
   -3.4634   -1.0063    0.0000 O   0  0  0  0  0  0  0  0  0  0  0  0
   -2.5952   -2.5050    0.0000 C   0  0  0  0  0  0  0  0  0  0  0  0
   -3.4605   -3.0063    0.0000 N   0  0  0  0  0  0  0  0  0  0  0  0
   -3.4590   -4.0063    0.0000 C   0  0  0  0  0  0  0  0  0  0  0  0
   -4.3243   -4.5075    0.0000 C   0  0  0  0  0  0  0  0  0  0  0  0
   -4.3229   -5.5075    0.0000 C   0  0  0  0  0  0  0  0  0  0  0  0
   -3.4561   -6.0063    0.0000 C   0  0  0  0  0  0  0  0  0  0  0  0
   -2.5878   -5.4998    0.0000 C   0  0  0  0  0  0  0  0  0  0  0  0
   -1.7210   -5.9986    0.0000 C   0  0  0  0  0  0  0  0  0  0  0  0
   -1.7137   -6.9986    0.0000 C   0  0  0  0  0  0  0  0  0  0  0  0
   -2.5820   -7.5050    0.0000 C   0  0  0  0  0  0  0  0  0  0  0  0
   -3.4577   -7.0114    0.0000 C   0  0  0  0  0  0  0  0  0  0  0  0
   -5.1882   -6.0088    0.0000 C   0  0  0  0  0  0  0  0  0  0  0  0
   -5.1838   -7.0140    0.0000 C   0  0  0  0  0  0  0  0  0  0  0  0
   -6.0491   -7.5153    0.0000 C   0  0  0  0  0  0  0  0  0  0  0  0
   -6.9188   -7.0216    0.0000 C   0  0  0  0  0  0  0  0  0  0  0  0
   -6.9232   -6.0164    0.0000 C   0  0  0  0  0  0  0  0  0  0  0  0
   -6.0579   -5.5049    0.0000 C   0  0  0  0  0  0  0  0  0  0  0  0
   -0.8675    1.5027    0.0000 C   0  0  0  0  0  0  0  0  0  0  0  0
    0.0000    2.0104    0.0000 C   0  0  0  0  0  0  0  0  0  0  0  0
  1  2  1  0  0  0  0
  2  3  2  0  0  0  0
  2  4  1  0  0  0  0
  4 30  2  0  0  0  0
  4  5  1  0  0  0  0
  5  6  2  0  0  0  0
  6  7  1  0  0  0  0
  7  8  1  0  0  0  0
  8  9  1  0  0  0  0
  9 10  1  0  0  0  0
 10 11  1  0  0  0  0
 10 12  1  0  0  0  0
 12 13  1  0  0  0  0
 13 14  1  0  0  0  0
 14 15  1  0  0  0  0
 15 16  1  0  0  0  0
 16 17  1  0  0  0  0
 17 22  2  0  0  0  0
 17 18  1  0  0  0  0
 18 19  2  0  0  0  0
 19 20  1  0  0  0  0
 20 21  2  0  0  0  0
 21 22  1  0  0  0  0
 16 23  1  0  0  0  0
 23 28  2  0  0  0  0
 23 24  1  0  0  0  0
 24 25  2  0  0  0  0
 25 26  1  0  0  0  0
 26 27  2  0  0  0  0
 27 28  1  0  0  0  0
  7 29  2  0  0  0  0
 29 30  1  0  0  0  0
M  END
> <ID>
372309

$$$$
372304
  -OEChem-05171416412D

 39 42  0     1  0  0  0  0  0999 V2000
    1.7304    7.0279    0.0000 C   0  0  0  0  0  0  0  0  0  0  0  0
    0.8615    7.5228    0.0000 O   0  0  0  0  0  0  0  0  0  0  0  0
   -0.0016    7.0177    0.0000 C   0  0  0  0  0  0  0  0  0  0  0  0
   -0.8736    7.5177    0.0000 C   0  0  0  0  0  0  0  0  0  0  0  0
   -1.7367    7.0127    0.0000 C   0  0  0  0  0  0  0  0  0  0  0  0
   -1.7367    6.0126    0.0000 C   0  0  0  0  0  0  0  0  0  0  0  0
   -2.6019    5.5113    0.0000 C   0  0  0  0  0  0  0  0  0  0  0  0
   -3.4687    6.0100    0.0000 O   0  0  0  0  0  0  0  0  0  0  0  0
   -2.6004    4.5113    0.0000 C   0  0  0  0  0  0  0  0  0  0  0  0
   -3.4657    4.0100    0.0000 C   0  0  0  0  0  0  0  0  0  0  0  0
   -3.4642    3.0100    0.0000 C   0  0  0  0  0  0  0  0  0  0  0  0
   -2.5915    2.5113    0.0000 C   0  0  0  0  0  0  0  0  0  0  0  0
   -2.5899    1.5113    0.0000 C   0  0  0  0  0  0  0  0  0  0  0  0
   -3.4523    1.0049    0.0000 C   0  0  0  0  0  0  0  0  0  0  0  0
   -4.3250    1.5036    0.0000 C   0  0  0  0  0  0  0  0  0  0  0  0
   -4.3354    2.5087    0.0000 C   0  0  0  0  0  0  0  0  0  0  0  0
   -3.4464    0.0049    0.0000 N   0  0  0  0  0  0  0  0  0  0  0  0
   -2.5774   -0.4900    0.0000 C   0  0  0  0  0  0  0  0  0  0  0  0
   -4.3094   -0.5002    0.0000 C   0  0  0  0  0  0  0  0  0  0  0  0
   -0.8647    5.5126    0.0000 C   0  0  0  0  0  0  0  0  0  0  0  0
   -0.8647    4.5126    0.0000 O   0  0  0  0  0  0  0  0  0  0  0  0
    0.0014    4.0126    0.0000 C   0  0  0  0  0  0  0  0  0  0  0  0
    0.0014    3.0126    0.0000 C   0  0  3  0  0  0  0  0  0  0  0  0
   -0.8647    2.5126    0.0000 O   0  0  0  0  0  0  0  0  0  0  0  0
    0.8674    2.5126    0.0000 C   0  0  0  0  0  0  0  0  0  0  0  0
    0.8674    1.5126    0.0000 N   0  0  0  0  0  0  0  0  0  0  0  0
    0.0000    1.0051    0.0000 C   0  0  0  0  0  0  0  0  0  0  0  0
    0.0000    0.0000    0.0000 C   0  0  0  0  0  0  0  0  0  0  0  0
    0.8674   -0.4976    0.0000 N   0  0  0  0  0  0  0  0  0  0  0  0
    1.7348    0.0000    0.0000 C   0  0  0  0  0  0  0  0  0  0  0  0
    1.7348    1.0051    0.0000 C   0  0  0  0  0  0  0  0  0  0  0  0
    0.8674   -1.4976    0.0000 C   0  0  0  0  0  0  0  0  0  0  0  0
    1.7327   -1.9989    0.0000 C   0  0  0  0  0  0  0  0  0  0  0  0
    1.7371   -2.9989    0.0000 C   0  0  0  0  0  0  0  0  0  0  0  0
    0.8673   -3.5028    0.0000 C   0  0  0  0  0  0  0  0  0  0  0  0
   -0.0069   -3.0066    0.0000 C   0  0  0  0  0  0  0  0  0  0  0  0
   -0.0024   -2.0015    0.0000 C   0  0  0  0  0  0  0  0  0  0  0  0
   -0.8677   -1.5002    0.0000 C   0  0  0  0  0  0  0  0  0  0  0  0
    0.0073    6.0126    0.0000 C   0  0  0  0  0  0  0  0  0  0  0  0
  1  2  1  0  0  0  0
  2  3  1  0  0  0  0
  3 39  2  0  0  0  0
  3  4  1  0  0  0  0
  4  5  2  0  0  0  0
  5  6  1  0  0  0  0
  6  7  1  0  0  0  0
  7  8  2  0  0  0  0
  7  9  1  0  0  0  0
  9 10  1  0  0  0  0
 10 11  1  0  0  0  0
 11 16  2  0  0  0  0
 11 12  1  0  0  0  0
 12 13  2  0  0  0  0
 13 14  1  0  0  0  0
 14 15  2  0  0  0  0
 15 16  1  0  0  0  0
 14 17  1  0  0  0  0
 17 18  1  0  0  0  0
 17 19  1  0  0  0  0
  6 20  2  0  0  0  0
 20 21  1  0  0  0  0
 21 22  1  0  0  0  0
 22 23  1  0  0  0  0
 23 24  1  0  0  0  0
 23 25  1  0  0  0  0
 25 26  1  0  0  0  0
 26 31  1  0  0  0  0
 26 27  1  0  0  0  0
 27 28  1  0  0  0  0
 28 29  1  0  0  0  0
 29 30  1  0  0  0  0
 30 31  1  0  0  0  0
 29 32  1  0  0  0  0
 32 37  2  0  0  0  0
 32 33  1  0  0  0  0
 33 34  2  0  0  0  0
 34 35  1  0  0  0  0
 35 36  2  0  0  0  0
 36 37  1  0  0  0  0
 37 38  1  0  0  0  0
 20 39  1  0  0  0  0
M  END
> <ID>
372304

$$$$
372303
  -OEChem-05171416412D

 29 31  0     1  0  0  0  0  0999 V2000
    0.8711    4.5113    0.0000 C   0  0  0  0  0  0  0  0  0  0  0  0
    0.8726    5.5113    0.0000 C   0  0  0  0  0  0  0  0  0  0  0  0
    1.7394    6.0100    0.0000 O   0  0  0  0  0  0  0  0  0  0  0  0
    0.0074    6.0126    0.0000 C   0  0  0  0  0  0  0  0  0  0  0  0
    0.0074    7.0127    0.0000 C   0  0  0  0  0  0  0  0  0  0  0  0
   -0.8557    7.5177    0.0000 C   0  0  0  0  0  0  0  0  0  0  0  0
   -0.8513    8.5177    0.0000 Cl  0  0  0  0  0  0  0  0  0  0  0  0
   -1.7277    7.0177    0.0000 C   0  0  0  0  0  0  0  0  0  0  0  0
   -2.5908    7.5228    0.0000 Cl  0  0  0  0  0  0  0  0  0  0  0  0
   -1.7366    6.0126    0.0000 C   0  0  0  0  0  0  0  0  0  0  0  0
   -0.8647    5.5126    0.0000 C   0  0  0  0  0  0  0  0  0  0  0  0
   -0.8647    4.5126    0.0000 O   0  0  0  0  0  0  0  0  0  0  0  0
    0.0014    4.0126    0.0000 C   0  0  0  0  0  0  0  0  0  0  0  0
    0.0014    3.0126    0.0000 C   0  0  3  0  0  0  0  0  0  0  0  0
   -0.8647    2.5126    0.0000 O   0  0  0  0  0  0  0  0  0  0  0  0
    0.8674    2.5126    0.0000 C   0  0  0  0  0  0  0  0  0  0  0  0
    0.8674    1.5126    0.0000 N   0  0  0  0  0  0  0  0  0  0  0  0
    0.0000    1.0051    0.0000 C   0  0  0  0  0  0  0  0  0  0  0  0
    0.0000    0.0000    0.0000 C   0  0  0  0  0  0  0  0  0  0  0  0
    0.8674   -0.4976    0.0000 N   0  0  0  0  0  0  0  0  0  0  0  0
    1.7348    0.0000    0.0000 C   0  0  0  0  0  0  0  0  0  0  0  0
    1.7348    1.0051    0.0000 C   0  0  0  0  0  0  0  0  0  0  0  0
    0.8674   -1.4976    0.0000 C   0  0  0  0  0  0  0  0  0  0  0  0
    1.7327   -1.9989    0.0000 C   0  0  0  0  0  0  0  0  0  0  0  0
    1.7371   -2.9989    0.0000 C   0  0  0  0  0  0  0  0  0  0  0  0
    0.8673   -3.5028    0.0000 C   0  0  0  0  0  0  0  0  0  0  0  0
   -0.0069   -3.0066    0.0000 C   0  0  0  0  0  0  0  0  0  0  0  0
   -0.0024   -2.0015    0.0000 C   0  0  0  0  0  0  0  0  0  0  0  0
   -0.8677   -1.5002    0.0000 C   0  0  0  0  0  0  0  0  0  0  0  0
  1  2  1  0  0  0  0
  2  3  2  0  0  0  0
  2  4  1  0  0  0  0
  4 11  2  0  0  0  0
  4  5  1  0  0  0  0
  5  6  2  0  0  0  0
  6  7  1  0  0  0  0
  6  8  1  0  0  0  0
  8  9  1  0  0  0  0
  8 10  2  0  0  0  0
 10 11  1  0  0  0  0
 11 12  1  0  0  0  0
 12 13  1  0  0  0  0
 13 14  1  0  0  0  0
 14 15  1  0  0  0  0
 14 16  1  0  0  0  0
 16 17  1  0  0  0  0
 17 22  1  0  0  0  0
 17 18  1  0  0  0  0
 18 19  1  0  0  0  0
 19 20  1  0  0  0  0
 20 21  1  0  0  0  0
 21 22  1  0  0  0  0
 20 23  1  0  0  0  0
 23 28  2  0  0  0  0
 23 24  1  0  0  0  0
 24 25  2  0  0  0  0
 25 26  1  0  0  0  0
 26 27  2  0  0  0  0
 27 28  1  0  0  0  0
 28 29  1  0  0  0  0
M  END
> <ID>
372303

$$$$
372301
  -OEChem-05171416412D

 28 30  0     1  0  0  0  0  0999 V2000
    0.8711    4.5113    0.0000 C   0  0  0  0  0  0  0  0  0  0  0  0
    0.8726    5.5113    0.0000 C   0  0  0  0  0  0  0  0  0  0  0  0
    1.7394    6.0100    0.0000 O   0  0  0  0  0  0  0  0  0  0  0  0
    0.0074    6.0126    0.0000 C   0  0  0  0  0  0  0  0  0  0  0  0
    0.0074    7.0127    0.0000 C   0  0  0  0  0  0  0  0  0  0  0  0
   -0.8557    7.5177    0.0000 C   0  0  0  0  0  0  0  0  0  0  0  0
   -1.7277    7.0177    0.0000 C   0  0  0  0  0  0  0  0  0  0  0  0
   -2.5908    7.5228    0.0000 C   0  0  0  0  0  0  0  0  0  0  0  0
   -1.7366    6.0126    0.0000 C   0  0  0  0  0  0  0  0  0  0  0  0
   -0.8647    5.5126    0.0000 C   0  0  0  0  0  0  0  0  0  0  0  0
   -0.8647    4.5126    0.0000 O   0  0  0  0  0  0  0  0  0  0  0  0
    0.0014    4.0126    0.0000 C   0  0  0  0  0  0  0  0  0  0  0  0
    0.0014    3.0126    0.0000 C   0  0  3  0  0  0  0  0  0  0  0  0
   -0.8647    2.5126    0.0000 O   0  0  0  0  0  0  0  0  0  0  0  0
    0.8674    2.5126    0.0000 C   0  0  0  0  0  0  0  0  0  0  0  0
    0.8674    1.5126    0.0000 N   0  0  0  0  0  0  0  0  0  0  0  0
    0.0000    1.0051    0.0000 C   0  0  0  0  0  0  0  0  0  0  0  0
    0.0000    0.0000    0.0000 C   0  0  0  0  0  0  0  0  0  0  0  0
    0.8674   -0.4976    0.0000 N   0  0  0  0  0  0  0  0  0  0  0  0
    1.7348    0.0000    0.0000 C   0  0  0  0  0  0  0  0  0  0  0  0
    1.7348    1.0051    0.0000 C   0  0  0  0  0  0  0  0  0  0  0  0
    0.8674   -1.4976    0.0000 C   0  0  0  0  0  0  0  0  0  0  0  0
    1.7327   -1.9989    0.0000 C   0  0  0  0  0  0  0  0  0  0  0  0
    1.7371   -2.9989    0.0000 C   0  0  0  0  0  0  0  0  0  0  0  0
    0.8673   -3.5028    0.0000 C   0  0  0  0  0  0  0  0  0  0  0  0
   -0.0069   -3.0066    0.0000 C   0  0  0  0  0  0  0  0  0  0  0  0
   -0.0024   -2.0015    0.0000 C   0  0  0  0  0  0  0  0  0  0  0  0
   -0.8677   -1.5002    0.0000 C   0  0  0  0  0  0  0  0  0  0  0  0
  1  2  1  0  0  0  0
  2  3  2  0  0  0  0
  2  4  1  0  0  0  0
  4 10  2  0  0  0  0
  4  5  1  0  0  0  0
  5  6  2  0  0  0  0
  6  7  1  0  0  0  0
  7  8  1  0  0  0  0
  7  9  2  0  0  0  0
  9 10  1  0  0  0  0
 10 11  1  0  0  0  0
 11 12  1  0  0  0  0
 12 13  1  0  0  0  0
 13 14  1  0  0  0  0
 13 15  1  0  0  0  0
 15 16  1  0  0  0  0
 16 21  1  0  0  0  0
 16 17  1  0  0  0  0
 17 18  1  0  0  0  0
 18 19  1  0  0  0  0
 19 20  1  0  0  0  0
 20 21  1  0  0  0  0
 19 22  1  0  0  0  0
 22 27  2  0  0  0  0
 22 23  1  0  0  0  0
 23 24  2  0  0  0  0
 24 25  1  0  0  0  0
 25 26  2  0  0  0  0
 26 27  1  0  0  0  0
 27 28  1  0  0  0  0
M  END
> <ID>
372301

$$$$
372300
  -OEChem-05171416412D

 27 29  0     1  0  0  0  0  0999 V2000
   -3.4687    6.0100    0.0000 C   0  0  0  0  0  0  0  0  0  0  0  0
   -2.6019    5.5113    0.0000 C   0  0  0  0  0  0  0  0  0  0  0  0
   -2.6004    4.5113    0.0000 O   0  0  0  0  0  0  0  0  0  0  0  0
   -1.7367    6.0126    0.0000 C   0  0  0  0  0  0  0  0  0  0  0  0
   -1.7367    7.0127    0.0000 C   0  0  0  0  0  0  0  0  0  0  0  0
   -0.8736    7.5177    0.0000 C   0  0  0  0  0  0  0  0  0  0  0  0
   -0.0016    7.0177    0.0000 C   0  0  0  0  0  0  0  0  0  0  0  0
    0.0073    6.0126    0.0000 C   0  0  0  0  0  0  0  0  0  0  0  0
   -0.8647    5.5126    0.0000 C   0  0  0  0  0  0  0  0  0  0  0  0
   -0.8647    4.5126    0.0000 O   0  0  0  0  0  0  0  0  0  0  0  0
    0.0014    4.0126    0.0000 C   0  0  0  0  0  0  0  0  0  0  0  0
    0.0014    3.0126    0.0000 C   0  0  3  0  0  0  0  0  0  0  0  0
   -0.8647    2.5126    0.0000 O   0  0  0  0  0  0  0  0  0  0  0  0
    0.8674    2.5126    0.0000 C   0  0  0  0  0  0  0  0  0  0  0  0
    0.8674    1.5126    0.0000 N   0  0  0  0  0  0  0  0  0  0  0  0
    0.0000    1.0051    0.0000 C   0  0  0  0  0  0  0  0  0  0  0  0
    0.0000    0.0000    0.0000 C   0  0  0  0  0  0  0  0  0  0  0  0
    0.8674   -0.4976    0.0000 N   0  0  0  0  0  0  0  0  0  0  0  0
    1.7348    0.0000    0.0000 C   0  0  0  0  0  0  0  0  0  0  0  0
    1.7348    1.0051    0.0000 C   0  0  0  0  0  0  0  0  0  0  0  0
    0.8674   -1.4976    0.0000 C   0  0  0  0  0  0  0  0  0  0  0  0
    1.7327   -1.9989    0.0000 C   0  0  0  0  0  0  0  0  0  0  0  0
    1.7371   -2.9989    0.0000 C   0  0  0  0  0  0  0  0  0  0  0  0
    0.8673   -3.5028    0.0000 C   0  0  0  0  0  0  0  0  0  0  0  0
   -0.0069   -3.0066    0.0000 C   0  0  0  0  0  0  0  0  0  0  0  0
   -0.0024   -2.0015    0.0000 C   0  0  0  0  0  0  0  0  0  0  0  0
   -0.8677   -1.5002    0.0000 C   0  0  0  0  0  0  0  0  0  0  0  0
  1  2  1  0  0  0  0
  2  3  2  0  0  0  0
  2  4  1  0  0  0  0
  4  9  2  0  0  0  0
  4  5  1  0  0  0  0
  5  6  2  0  0  0  0
  6  7  1  0  0  0  0
  7  8  2  0  0  0  0
  8  9  1  0  0  0  0
  9 10  1  0  0  0  0
 10 11  1  0  0  0  0
 11 12  1  0  0  0  0
 12 13  1  0  0  0  0
 12 14  1  0  0  0  0
 14 15  1  0  0  0  0
 15 20  1  0  0  0  0
 15 16  1  0  0  0  0
 16 17  1  0  0  0  0
 17 18  1  0  0  0  0
 18 19  1  0  0  0  0
 19 20  1  0  0  0  0
 18 21  1  0  0  0  0
 21 26  2  0  0  0  0
 21 22  1  0  0  0  0
 22 23  2  0  0  0  0
 23 24  1  0  0  0  0
 24 25  2  0  0  0  0
 25 26  1  0  0  0  0
 26 27  1  0  0  0  0
M  END
> <ID>
372300

$$$$
372297
  -OEChem-05171416412D

 31 33  0     1  0  0  0  0  0999 V2000
   -0.0142    9.0215    0.0000 C   0  0  0  0  0  0  0  0  0  0  0  0
   -0.8780    8.5177    0.0000 C   0  0  0  0  0  0  0  0  0  0  0  0
   -1.7462    9.0139    0.0000 O   0  0  0  0  0  0  0  0  0  0  0  0
   -0.8736    7.5177    0.0000 C   0  0  0  0  0  0  0  0  0  0  0  0
   -1.7367    7.0127    0.0000 C   0  0  0  0  0  0  0  0  0  0  0  0
   -1.7367    6.0126    0.0000 C   0  0  0  0  0  0  0  0  0  0  0  0
   -2.6019    5.5113    0.0000 C   0  0  0  0  0  0  0  0  0  0  0  0
   -3.4687    6.0100    0.0000 O   0  0  0  0  0  0  0  0  0  0  0  0
   -2.6004    4.5113    0.0000 C   0  0  0  0  0  0  0  0  0  0  0  0
   -0.8647    5.5126    0.0000 C   0  0  0  0  0  0  0  0  0  0  0  0
   -0.8647    4.5126    0.0000 O   0  0  0  0  0  0  0  0  0  0  0  0
    0.0014    4.0126    0.0000 C   0  0  0  0  0  0  0  0  0  0  0  0
    0.0014    3.0126    0.0000 C   0  0  3  0  0  0  0  0  0  0  0  0
   -0.8647    2.5126    0.0000 O   0  0  0  0  0  0  0  0  0  0  0  0
    0.8674    2.5126    0.0000 C   0  0  0  0  0  0  0  0  0  0  0  0
    0.8674    1.5126    0.0000 N   0  0  0  0  0  0  0  0  0  0  0  0
    0.0000    1.0051    0.0000 C   0  0  0  0  0  0  0  0  0  0  0  0
    0.0000    0.0000    0.0000 C   0  0  0  0  0  0  0  0  0  0  0  0
    0.8674   -0.4976    0.0000 N   0  0  0  0  0  0  0  0  0  0  0  0
    1.7348    0.0000    0.0000 C   0  0  0  0  0  0  0  0  0  0  0  0
    1.7348    1.0051    0.0000 C   0  0  0  0  0  0  0  0  0  0  0  0
    0.8674   -1.4976    0.0000 C   0  0  0  0  0  0  0  0  0  0  0  0
    1.7327   -1.9989    0.0000 C   0  0  0  0  0  0  0  0  0  0  0  0
    1.7371   -2.9989    0.0000 C   0  0  0  0  0  0  0  0  0  0  0  0
    0.8673   -3.5028    0.0000 C   0  0  0  0  0  0  0  0  0  0  0  0
   -0.0069   -3.0066    0.0000 C   0  0  0  0  0  0  0  0  0  0  0  0
   -0.0024   -2.0015    0.0000 C   0  0  0  0  0  0  0  0  0  0  0  0
   -0.8677   -1.5002    0.0000 C   0  0  0  0  0  0  0  0  0  0  0  0
    0.0073    6.0126    0.0000 C   0  0  0  0  0  0  0  0  0  0  0  0
   -0.0016    7.0177    0.0000 C   0  0  0  0  0  0  0  0  0  0  0  0
    0.8615    7.5228    0.0000 C   0  0  0  0  0  0  0  0  0  0  0  0
  1  2  1  0  0  0  0
  2  3  2  0  0  0  0
  2  4  1  0  0  0  0
  4 30  2  0  0  0  0
  4  5  1  0  0  0  0
  5  6  2  0  0  0  0
  6  7  1  0  0  0  0
  7  8  2  0  0  0  0
  7  9  1  0  0  0  0
  6 10  1  0  0  0  0
 10 11  1  0  0  0  0
 11 12  1  0  0  0  0
 12 13  1  0  0  0  0
 13 14  1  0  0  0  0
 13 15  1  0  0  0  0
 15 16  1  0  0  0  0
 16 21  1  0  0  0  0
 16 17  1  0  0  0  0
 17 18  1  0  0  0  0
 18 19  1  0  0  0  0
 19 20  1  0  0  0  0
 20 21  1  0  0  0  0
 19 22  1  0  0  0  0
 22 27  2  0  0  0  0
 22 23  1  0  0  0  0
 23 24  2  0  0  0  0
 24 25  1  0  0  0  0
 25 26  2  0  0  0  0
 26 27  1  0  0  0  0
 27 28  1  0  0  0  0
 10 29  2  0  0  0  0
 29 30  1  0  0  0  0
 30 31  1  0  0  0  0
M  END
> <ID>
372297

$$$$
372296
  -OEChem-05171416412D

 28 30  0     1  0  0  0  0  0999 V2000
    0.8689    4.5152    0.0000 C   0  0  0  0  0  0  0  0  0  0  0  0
    0.8704    5.5152    0.0000 C   0  0  0  0  0  0  0  0  0  0  0  0
    1.7372    6.0139    0.0000 O   0  0  0  0  0  0  0  0  0  0  0  0
    0.0051    6.0165    0.0000 C   0  0  0  0  0  0  0  0  0  0  0  0
    0.0096    7.0216    0.0000 C   0  0  0  0  0  0  0  0  0  0  0  0
   -0.8645    7.5178    0.0000 C   0  0  0  0  0  0  0  0  0  0  0  0
   -0.8689    8.5177    0.0000 C   0  0  0  0  0  0  0  0  0  0  0  0
   -1.7343    7.0139    0.0000 C   0  0  0  0  0  0  0  0  0  0  0  0
   -1.7300    6.0139    0.0000 C   0  0  0  0  0  0  0  0  0  0  0  0
   -0.8647    5.5126    0.0000 C   0  0  0  0  0  0  0  0  0  0  0  0
   -0.8647    4.5126    0.0000 O   0  0  0  0  0  0  0  0  0  0  0  0
    0.0014    4.0126    0.0000 C   0  0  0  0  0  0  0  0  0  0  0  0
    0.0014    3.0126    0.0000 C   0  0  3  0  0  0  0  0  0  0  0  0
   -0.8647    2.5126    0.0000 O   0  0  0  0  0  0  0  0  0  0  0  0
    0.8674    2.5126    0.0000 C   0  0  0  0  0  0  0  0  0  0  0  0
    0.8674    1.5126    0.0000 N   0  0  0  0  0  0  0  0  0  0  0  0
    0.0000    1.0051    0.0000 C   0  0  0  0  0  0  0  0  0  0  0  0
    0.0000    0.0000    0.0000 C   0  0  0  0  0  0  0  0  0  0  0  0
    0.8674   -0.4976    0.0000 N   0  0  0  0  0  0  0  0  0  0  0  0
    1.7348    0.0000    0.0000 C   0  0  0  0  0  0  0  0  0  0  0  0
    1.7348    1.0051    0.0000 C   0  0  0  0  0  0  0  0  0  0  0  0
    0.8674   -1.4976    0.0000 C   0  0  0  0  0  0  0  0  0  0  0  0
    1.7327   -1.9989    0.0000 C   0  0  0  0  0  0  0  0  0  0  0  0
    1.7371   -2.9989    0.0000 C   0  0  0  0  0  0  0  0  0  0  0  0
    0.8673   -3.5028    0.0000 C   0  0  0  0  0  0  0  0  0  0  0  0
   -0.0069   -3.0066    0.0000 C   0  0  0  0  0  0  0  0  0  0  0  0
   -0.0024   -2.0015    0.0000 C   0  0  0  0  0  0  0  0  0  0  0  0
   -0.8677   -1.5002    0.0000 C   0  0  0  0  0  0  0  0  0  0  0  0
  1  2  1  0  0  0  0
  2  3  2  0  0  0  0
  2  4  1  0  0  0  0
  4 10  2  0  0  0  0
  4  5  1  0  0  0  0
  5  6  2  0  0  0  0
  6  7  1  0  0  0  0
  6  8  1  0  0  0  0
  8  9  2  0  0  0  0
  9 10  1  0  0  0  0
 10 11  1  0  0  0  0
 11 12  1  0  0  0  0
 12 13  1  0  0  0  0
 13 14  1  0  0  0  0
 13 15  1  0  0  0  0
 15 16  1  0  0  0  0
 16 21  1  0  0  0  0
 16 17  1  0  0  0  0
 17 18  1  0  0  0  0
 18 19  1  0  0  0  0
 19 20  1  0  0  0  0
 20 21  1  0  0  0  0
 19 22  1  0  0  0  0
 22 27  2  0  0  0  0
 22 23  1  0  0  0  0
 23 24  2  0  0  0  0
 24 25  1  0  0  0  0
 25 26  2  0  0  0  0
 26 27  1  0  0  0  0
 27 28  1  0  0  0  0
M  END
> <ID>
372296

$$$$
372375
  -OEChem-05171416412D

 29 31  0     1  0  0  0  0  0999 V2000
   -0.0051    9.0216    0.0000 C   0  0  0  0  0  0  0  0  0  0  0  0
   -0.8689    8.5177    0.0000 O   0  0  0  0  0  0  0  0  0  0  0  0
   -0.8645    7.5178    0.0000 C   0  0  0  0  0  0  0  0  0  0  0  0
   -1.7343    7.0139    0.0000 C   0  0  0  0  0  0  0  0  0  0  0  0
   -1.7300    6.0139    0.0000 C   0  0  0  0  0  0  0  0  0  0  0  0
   -0.8647    5.5126    0.0000 C   0  0  0  0  0  0  0  0  0  0  0  0
   -0.8647    4.5126    0.0000 O   0  0  0  0  0  0  0  0  0  0  0  0
    0.0014    4.0126    0.0000 C   0  0  0  0  0  0  0  0  0  0  0  0
    0.0014    3.0126    0.0000 C   0  0  3  0  0  0  0  0  0  0  0  0
   -0.8647    2.5126    0.0000 O   0  0  0  0  0  0  0  0  0  0  0  0
    0.8674    2.5126    0.0000 C   0  0  0  0  0  0  0  0  0  0  0  0
    0.8674    1.5126    0.0000 N   0  0  0  0  0  0  0  0  0  0  0  0
    0.0000    1.0051    0.0000 C   0  0  0  0  0  0  0  0  0  0  0  0
    0.0000    0.0000    0.0000 C   0  0  0  0  0  0  0  0  0  0  0  0
    0.8674   -0.4976    0.0000 N   0  0  0  0  0  0  0  0  0  0  0  0
    1.7348    0.0000    0.0000 C   0  0  0  0  0  0  0  0  0  0  0  0
    1.7348    1.0051    0.0000 C   0  0  0  0  0  0  0  0  0  0  0  0
    0.8674   -1.4976    0.0000 C   0  0  0  0  0  0  0  0  0  0  0  0
    1.7327   -1.9989    0.0000 C   0  0  0  0  0  0  0  0  0  0  0  0
    1.7371   -2.9989    0.0000 C   0  0  0  0  0  0  0  0  0  0  0  0
    0.8673   -3.5028    0.0000 C   0  0  0  0  0  0  0  0  0  0  0  0
   -0.0069   -3.0066    0.0000 C   0  0  0  0  0  0  0  0  0  0  0  0
   -0.0024   -2.0015    0.0000 C   0  0  0  0  0  0  0  0  0  0  0  0
   -0.8677   -1.5002    0.0000 C   0  0  0  0  0  0  0  0  0  0  0  0
    0.0051    6.0165    0.0000 C   0  0  0  0  0  0  0  0  0  0  0  0
    0.0096    7.0216    0.0000 C   0  0  0  0  0  0  0  0  0  0  0  0
    0.8704    5.5152    0.0000 C   0  0  0  0  0  0  0  0  0  0  0  0
    0.8689    4.5152    0.0000 O   0  0  0  0  0  0  0  0  0  0  0  0
    1.7372    6.0139    0.0000 C   0  0  0  0  0  0  0  0  0  0  0  0
  1  2  1  0  0  0  0
  2  3  1  0  0  0  0
  3 26  2  0  0  0  0
  3  4  1  0  0  0  0
  4  5  2  0  0  0  0
  5  6  1  0  0  0  0
  6  7  1  0  0  0  0
  7  8  1  0  0  0  0
  8  9  1  0  0  0  0
  9 10  1  0  0  0  0
  9 11  1  0  0  0  0
 11 12  1  0  0  0  0
 12 17  1  0  0  0  0
 12 13  1  0  0  0  0
 13 14  1  0  0  0  0
 14 15  1  0  0  0  0
 15 16  1  0  0  0  0
 16 17  1  0  0  0  0
 15 18  1  0  0  0  0
 18 23  2  0  0  0  0
 18 19  1  0  0  0  0
 19 20  2  0  0  0  0
 20 21  1  0  0  0  0
 21 22  2  0  0  0  0
 22 23  1  0  0  0  0
 23 24  1  0  0  0  0
  6 25  2  0  0  0  0
 25 26  1  0  0  0  0
 25 27  1  0  0  0  0
 27 28  2  0  0  0  0
 27 29  1  0  0  0  0
M  END
> <ID>
372375

$$$$
372374
  -OEChem-05171416412D

 36 39  0     1  0  0  0  0  0999 V2000
    1.7304    7.0279    0.0000 C   0  0  0  0  0  0  0  0  0  0  0  0
    0.8615    7.5228    0.0000 O   0  0  0  0  0  0  0  0  0  0  0  0
   -0.0016    7.0177    0.0000 C   0  0  0  0  0  0  0  0  0  0  0  0
   -0.8736    7.5177    0.0000 C   0  0  0  0  0  0  0  0  0  0  0  0
   -1.7367    7.0127    0.0000 C   0  0  0  0  0  0  0  0  0  0  0  0
   -1.7367    6.0126    0.0000 C   0  0  0  0  0  0  0  0  0  0  0  0
   -2.6019    5.5113    0.0000 C   0  0  0  0  0  0  0  0  0  0  0  0
   -3.4687    6.0100    0.0000 O   0  0  0  0  0  0  0  0  0  0  0  0
   -2.6004    4.5113    0.0000 C   0  0  0  0  0  0  0  0  0  0  0  0
   -3.4657    4.0100    0.0000 C   0  0  0  0  0  0  0  0  0  0  0  0
   -3.4642    3.0100    0.0000 C   0  0  0  0  0  0  0  0  0  0  0  0
   -2.5915    2.5113    0.0000 C   0  0  0  0  0  0  0  0  0  0  0  0
   -2.5899    1.5113    0.0000 C   0  0  0  0  0  0  0  0  0  0  0  0
   -3.4523    1.0049    0.0000 C   0  0  0  0  0  0  0  0  0  0  0  0
   -4.3250    1.5036    0.0000 C   0  0  0  0  0  0  0  0  0  0  0  0
   -4.3354    2.5087    0.0000 C   0  0  0  0  0  0  0  0  0  0  0  0
   -0.8647    5.5126    0.0000 C   0  0  0  0  0  0  0  0  0  0  0  0
   -0.8647    4.5126    0.0000 O   0  0  0  0  0  0  0  0  0  0  0  0
    0.0014    4.0126    0.0000 C   0  0  0  0  0  0  0  0  0  0  0  0
    0.0014    3.0126    0.0000 C   0  0  3  0  0  0  0  0  0  0  0  0
   -0.8647    2.5126    0.0000 O   0  0  0  0  0  0  0  0  0  0  0  0
    0.8674    2.5126    0.0000 C   0  0  0  0  0  0  0  0  0  0  0  0
    0.8674    1.5126    0.0000 N   0  0  0  0  0  0  0  0  0  0  0  0
    0.0000    1.0051    0.0000 C   0  0  0  0  0  0  0  0  0  0  0  0
    0.0000    0.0000    0.0000 C   0  0  0  0  0  0  0  0  0  0  0  0
    0.8674   -0.4976    0.0000 N   0  0  0  0  0  0  0  0  0  0  0  0
    1.7348    0.0000    0.0000 C   0  0  0  0  0  0  0  0  0  0  0  0
    1.7348    1.0051    0.0000 C   0  0  0  0  0  0  0  0  0  0  0  0
    0.8674   -1.4976    0.0000 C   0  0  0  0  0  0  0  0  0  0  0  0
    1.7327   -1.9989    0.0000 C   0  0  0  0  0  0  0  0  0  0  0  0
    1.7371   -2.9989    0.0000 C   0  0  0  0  0  0  0  0  0  0  0  0
    0.8673   -3.5028    0.0000 C   0  0  0  0  0  0  0  0  0  0  0  0
   -0.0069   -3.0066    0.0000 C   0  0  0  0  0  0  0  0  0  0  0  0
   -0.0024   -2.0015    0.0000 C   0  0  0  0  0  0  0  0  0  0  0  0
   -0.8677   -1.5002    0.0000 C   0  0  0  0  0  0  0  0  0  0  0  0
    0.0073    6.0126    0.0000 C   0  0  0  0  0  0  0  0  0  0  0  0
  1  2  1  0  0  0  0
  2  3  1  0  0  0  0
  3 36  2  0  0  0  0
  3  4  1  0  0  0  0
  4  5  2  0  0  0  0
  5  6  1  0  0  0  0
  6  7  1  0  0  0  0
  7  8  2  0  0  0  0
  7  9  1  0  0  0  0
  9 10  1  0  0  0  0
 10 11  1  0  0  0  0
 11 16  2  0  0  0  0
 11 12  1  0  0  0  0
 12 13  2  0  0  0  0
 13 14  1  0  0  0  0
 14 15  2  0  0  0  0
 15 16  1  0  0  0  0
  6 17  2  0  0  0  0
 17 18  1  0  0  0  0
 18 19  1  0  0  0  0
 19 20  1  0  0  0  0
 20 21  1  0  0  0  0
 20 22  1  0  0  0  0
 22 23  1  0  0  0  0
 23 28  1  0  0  0  0
 23 24  1  0  0  0  0
 24 25  1  0  0  0  0
 25 26  1  0  0  0  0
 26 27  1  0  0  0  0
 27 28  1  0  0  0  0
 26 29  1  0  0  0  0
 29 34  2  0  0  0  0
 29 30  1  0  0  0  0
 30 31  2  0  0  0  0
 31 32  1  0  0  0  0
 32 33  2  0  0  0  0
 33 34  1  0  0  0  0
 34 35  1  0  0  0  0
 17 36  1  0  0  0  0
M  END
> <ID>
372374

$$$$
372369
  -OEChem-05171416412D

 35 38  0     1  0  0  0  0  0999 V2000
    2.5935    4.5228    0.0000 C   0  0  0  0  0  0  0  0  0  0  0  0
    1.7305    4.0177    0.0000 C   0  0  0  0  0  0  0  0  0  0  0  0
    0.8585    4.5177    0.0000 C   0  0  0  0  0  0  0  0  0  0  0  0
   -0.0047    4.0127    0.0000 C   0  0  0  0  0  0  0  0  0  0  0  0
   -0.0046    3.0126    0.0000 C   0  0  0  0  0  0  0  0  0  0  0  0
    0.8674    2.5126    0.0000 C   0  0  0  0  0  0  0  0  0  0  0  0
    0.8674    1.5126    0.0000 N   0  0  0  0  0  0  0  0  0  0  0  0
    0.0000    1.0051    0.0000 C   0  0  0  0  0  0  0  0  0  0  0  0
    0.0000    0.0000    0.0000 C   0  0  0  0  0  0  0  0  0  0  0  0
    0.8674   -0.4976    0.0000 N   0  0  0  0  0  0  0  0  0  0  0  0
    0.8674   -1.4976    0.0000 C   0  0  0  0  0  0  0  0  0  0  0  0
    1.7334   -1.9976    0.0000 C   0  0  3  0  0  0  0  0  0  0  0  0
    2.5995   -1.4976    0.0000 O   0  0  0  0  0  0  0  0  0  0  0  0
    1.7334   -2.9976    0.0000 C   0  0  0  0  0  0  0  0  0  0  0  0
    2.5995   -3.4976    0.0000 O   0  0  0  0  0  0  0  0  0  0  0  0
    2.5995   -4.4976    0.0000 C   0  0  0  0  0  0  0  0  0  0  0  0
    3.4715   -4.9976    0.0000 C   0  0  0  0  0  0  0  0  0  0  0  0
    3.4715   -5.9977    0.0000 C   0  0  0  0  0  0  0  0  0  0  0  0
    2.6084   -6.5027    0.0000 C   0  0  0  0  0  0  0  0  0  0  0  0
    1.7364   -6.0027    0.0000 C   0  0  0  0  0  0  0  0  0  0  0  0
    1.7275   -4.9976    0.0000 C   0  0  0  0  0  0  0  0  0  0  0  0
    2.6128   -7.5027    0.0000 C   0  0  0  0  0  0  0  0  0  0  0  0
    1.7490   -8.0065    0.0000 O   0  0  0  0  0  0  0  0  0  0  0  0
    3.4810   -7.9989    0.0000 C   0  0  0  0  0  0  0  0  0  0  0  0
    3.4854   -8.9989    0.0000 C   0  0  0  0  0  0  0  0  0  0  0  0
    4.3536   -9.4951    0.0000 C   0  0  0  0  0  0  0  0  0  0  0  0
    5.2204   -8.9861    0.0000 C   0  0  0  0  0  0  0  0  0  0  0  0
    6.0887   -9.4823    0.0000 C   0  0  0  0  0  0  0  0  0  0  0  0
    6.0990  -10.4822    0.0000 C   0  0  0  0  0  0  0  0  0  0  0  0
    5.2322  -10.9912    0.0000 C   0  0  0  0  0  0  0  0  0  0  0  0
    4.3551  -10.5002    0.0000 C   0  0  0  0  0  0  0  0  0  0  0  0
    1.7348    0.0000    0.0000 C   0  0  0  0  0  0  0  0  0  0  0  0
    1.7348    1.0051    0.0000 C   0  0  0  0  0  0  0  0  0  0  0  0
    1.7394    3.0126    0.0000 C   0  0  0  0  0  0  0  0  0  0  0  0
    2.6069    2.5152    0.0000 C   0  0  0  0  0  0  0  0  0  0  0  0
  1  2  1  0  0  0  0
  2 34  2  0  0  0  0
  2  3  1  0  0  0  0
  3  4  2  0  0  0  0
  4  5  1  0  0  0  0
  5  6  2  0  0  0  0
  6  7  1  0  0  0  0
  7 33  1  0  0  0  0
  7  8  1  0  0  0  0
  8  9  1  0  0  0  0
  9 10  1  0  0  0  0
 10 11  1  0  0  0  0
 11 12  1  0  0  0  0
 12 13  1  0  0  0  0
 12 14  1  0  0  0  0
 14 15  1  0  0  0  0
 15 16  1  0  0  0  0
 16 21  2  0  0  0  0
 16 17  1  0  0  0  0
 17 18  2  0  0  0  0
 18 19  1  0  0  0  0
 19 20  2  0  0  0  0
 20 21  1  0  0  0  0
 19 22  1  0  0  0  0
 22 23  2  0  0  0  0
 22 24  1  0  0  0  0
 24 25  1  0  0  0  0
 25 26  1  0  0  0  0
 26 31  2  0  0  0  0
 26 27  1  0  0  0  0
 27 28  2  0  0  0  0
 28 29  1  0  0  0  0
 29 30  2  0  0  0  0
 30 31  1  0  0  0  0
 10 32  1  0  0  0  0
 32 33  1  0  0  0  0
  6 34  1  0  0  0  0
 34 35  1  0  0  0  0
M  END
> <ID>
372369

$$$$
372368
  -OEChem-05171416412D

 28 30  0     1  0  0  0  0  0999 V2000
   -3.4687    6.0100    0.0000 C   0  0  0  0  0  0  0  0  0  0  0  0
   -2.6019    5.5113    0.0000 C   0  0  0  0  0  0  0  0  0  0  0  0
   -2.6004    4.5113    0.0000 O   0  0  0  0  0  0  0  0  0  0  0  0
   -1.7367    6.0126    0.0000 C   0  0  0  0  0  0  0  0  0  0  0  0
   -1.7367    7.0127    0.0000 C   0  0  0  0  0  0  0  0  0  0  0  0
   -0.8736    7.5177    0.0000 C   0  0  0  0  0  0  0  0  0  0  0  0
   -0.0016    7.0177    0.0000 C   0  0  0  0  0  0  0  0  0  0  0  0
    0.0073    6.0126    0.0000 C   0  0  0  0  0  0  0  0  0  0  0  0
   -0.8647    5.5126    0.0000 C   0  0  0  0  0  0  0  0  0  0  0  0
   -0.8647    4.5126    0.0000 O   0  0  0  0  0  0  0  0  0  0  0  0
    0.0014    4.0126    0.0000 C   0  0  0  0  0  0  0  0  0  0  0  0
    0.0014    3.0126    0.0000 C   0  0  3  0  0  0  0  0  0  0  0  0
   -0.8647    2.5126    0.0000 O   0  0  0  0  0  0  0  0  0  0  0  0
    0.8674    2.5126    0.0000 C   0  0  0  0  0  0  0  0  0  0  0  0
    0.8674    1.5126    0.0000 N   0  0  0  0  0  0  0  0  0  0  0  0
    0.0000    1.0051    0.0000 C   0  0  0  0  0  0  0  0  0  0  0  0
    0.0000    0.0000    0.0000 C   0  0  0  0  0  0  0  0  0  0  0  0
    0.8674   -0.4976    0.0000 N   0  0  0  0  0  0  0  0  0  0  0  0
    1.7348    0.0000    0.0000 C   0  0  0  0  0  0  0  0  0  0  0  0
    1.7348    1.0051    0.0000 C   0  0  0  0  0  0  0  0  0  0  0  0
    0.8674   -1.4976    0.0000 C   0  0  0  0  0  0  0  0  0  0  0  0
   -0.0046   -1.9976    0.0000 C   0  0  0  0  0  0  0  0  0  0  0  0
   -0.0047   -2.9977    0.0000 C   0  0  0  0  0  0  0  0  0  0  0  0
    0.8585   -3.5027    0.0000 C   0  0  0  0  0  0  0  0  0  0  0  0
    1.7305   -3.0027    0.0000 C   0  0  0  0  0  0  0  0  0  0  0  0
    2.5935   -3.5078    0.0000 C   0  0  0  0  0  0  0  0  0  0  0  0
    1.7394   -1.9976    0.0000 C   0  0  0  0  0  0  0  0  0  0  0  0
    2.6069   -1.5002    0.0000 C   0  0  0  0  0  0  0  0  0  0  0  0
  1  2  1  0  0  0  0
  2  3  2  0  0  0  0
  2  4  1  0  0  0  0
  4  9  2  0  0  0  0
  4  5  1  0  0  0  0
  5  6  2  0  0  0  0
  6  7  1  0  0  0  0
  7  8  2  0  0  0  0
  8  9  1  0  0  0  0
  9 10  1  0  0  0  0
 10 11  1  0  0  0  0
 11 12  1  0  0  0  0
 12 13  1  0  0  0  0
 12 14  1  0  0  0  0
 14 15  1  0  0  0  0
 15 20  1  0  0  0  0
 15 16  1  0  0  0  0
 16 17  1  0  0  0  0
 17 18  1  0  0  0  0
 18 19  1  0  0  0  0
 19 20  1  0  0  0  0
 18 21  1  0  0  0  0
 21 27  2  0  0  0  0
 21 22  1  0  0  0  0
 22 23  2  0  0  0  0
 23 24  1  0  0  0  0
 24 25  2  0  0  0  0
 25 26  1  0  0  0  0
 25 27  1  0  0  0  0
 27 28  1  0  0  0  0
M  END
> <ID>
372368

$$$$
372363
  -OEChem-05171416412D

 27 29  0     1  0  0  0  0  0999 V2000
    1.7304    7.0279    0.0000 C   0  0  0  0  0  0  0  0  0  0  0  0
    0.8615    7.5228    0.0000 C   0  0  0  0  0  0  0  0  0  0  0  0
    0.8556    8.5228    0.0000 O   0  0  0  0  0  0  0  0  0  0  0  0
   -0.0016    7.0177    0.0000 C   0  0  0  0  0  0  0  0  0  0  0  0
   -0.8736    7.5177    0.0000 C   0  0  0  0  0  0  0  0  0  0  0  0
   -1.7367    7.0127    0.0000 C   0  0  0  0  0  0  0  0  0  0  0  0
   -1.7367    6.0126    0.0000 C   0  0  0  0  0  0  0  0  0  0  0  0
   -0.8647    5.5126    0.0000 C   0  0  0  0  0  0  0  0  0  0  0  0
   -0.8647    4.5126    0.0000 O   0  0  0  0  0  0  0  0  0  0  0  0
    0.0014    4.0126    0.0000 C   0  0  0  0  0  0  0  0  0  0  0  0
    0.0014    3.0126    0.0000 C   0  0  3  0  0  0  0  0  0  0  0  0
   -0.8647    2.5126    0.0000 O   0  0  0  0  0  0  0  0  0  0  0  0
    0.8674    2.5126    0.0000 C   0  0  0  0  0  0  0  0  0  0  0  0
    0.8674    1.5126    0.0000 N   0  0  0  0  0  0  0  0  0  0  0  0
    0.0000    1.0051    0.0000 C   0  0  0  0  0  0  0  0  0  0  0  0
    0.0000    0.0000    0.0000 C   0  0  0  0  0  0  0  0  0  0  0  0
    0.8674   -0.4976    0.0000 N   0  0  0  0  0  0  0  0  0  0  0  0
    1.7348    0.0000    0.0000 C   0  0  0  0  0  0  0  0  0  0  0  0
    1.7348    1.0051    0.0000 C   0  0  0  0  0  0  0  0  0  0  0  0
    0.8674   -1.4976    0.0000 C   0  0  0  0  0  0  0  0  0  0  0  0
    1.7327   -1.9989    0.0000 C   0  0  0  0  0  0  0  0  0  0  0  0
    1.7371   -2.9989    0.0000 C   0  0  0  0  0  0  0  0  0  0  0  0
    0.8673   -3.5028    0.0000 C   0  0  0  0  0  0  0  0  0  0  0  0
   -0.0069   -3.0066    0.0000 C   0  0  0  0  0  0  0  0  0  0  0  0
   -0.0024   -2.0015    0.0000 C   0  0  0  0  0  0  0  0  0  0  0  0
   -0.8677   -1.5002    0.0000 C   0  0  0  0  0  0  0  0  0  0  0  0
    0.0073    6.0126    0.0000 C   0  0  0  0  0  0  0  0  0  0  0  0
  1  2  1  0  0  0  0
  2  3  2  0  0  0  0
  2  4  1  0  0  0  0
  4 27  2  0  0  0  0
  4  5  1  0  0  0  0
  5  6  2  0  0  0  0
  6  7  1  0  0  0  0
  7  8  2  0  0  0  0
  8  9  1  0  0  0  0
  9 10  1  0  0  0  0
 10 11  1  0  0  0  0
 11 12  1  0  0  0  0
 11 13  1  0  0  0  0
 13 14  1  0  0  0  0
 14 19  1  0  0  0  0
 14 15  1  0  0  0  0
 15 16  1  0  0  0  0
 16 17  1  0  0  0  0
 17 18  1  0  0  0  0
 18 19  1  0  0  0  0
 17 20  1  0  0  0  0
 20 25  2  0  0  0  0
 20 21  1  0  0  0  0
 21 22  2  0  0  0  0
 22 23  1  0  0  0  0
 23 24  2  0  0  0  0
 24 25  1  0  0  0  0
 25 26  1  0  0  0  0
  8 27  1  0  0  0  0
M  END
> <ID>
372363

$$$$
372362
  -OEChem-05171416412D

 17 19  0     1  0  0  0  0  0999 V2000
    0.2283    5.1812    0.0000 C   0  0  0  0  0  0  0  0  0  0  0  0
    0.9714    4.5120    0.0000 C   0  0  3  0  0  0  0  0  0  0  0  0
    0.8660    3.5104    0.0000 C   0  0  3  0  0  0  0  0  0  0  0  0
   -0.0000    3.0104    0.0000 C   0  0  0  0  0  0  0  0  0  0  0  0
   -0.0000    2.0104    0.0000 N   0  0  0  0  0  0  0  0  0  0  0  0
   -0.8675    1.5027    0.0000 C   0  0  0  0  0  0  0  0  0  0  0  0
   -0.8675    0.4975    0.0000 C   0  0  0  0  0  0  0  0  0  0  0  0
    0.0000    0.0000    0.0000 C   0  0  0  0  0  0  0  0  0  0  0  0
    0.8675    0.4975    0.0000 C   0  0  0  0  0  0  0  0  0  0  0  0
    0.8675    1.5027    0.0000 C   0  0  0  0  0  0  0  0  0  0  0  0
    1.7860    3.1009    0.0000 O   0  0  0  0  0  0  0  0  0  0  0  0
    2.4600    3.8492    0.0000 C   0  0  0  0  0  0  0  0  0  0  0  0
    3.4657    3.8432    0.0000 C   0  0  0  0  0  0  0  0  0  0  0  0
    3.9634    4.7171    0.0000 C   0  0  0  0  0  0  0  0  0  0  0  0
    3.4606    5.5882    0.0000 C   0  0  0  0  0  0  0  0  0  0  0  0
    2.4600    5.5853    0.0000 C   0  0  0  0  0  0  0  0  0  0  0  0
    1.9565    4.7213    0.0000 C   0  0  0  0  0  0  0  0  0  0  0  0
  1  2  1  0  0  0  0
  2 17  1  0  0  0  0
  2  3  1  0  0  0  0
  3  4  1  0  0  0  0
  4  5  1  0  0  0  0
  5 10  1  0  0  0  0
  5  6  1  0  0  0  0
  6  7  1  0  0  0  0
  7  8  1  0  0  0  0
  8  9  1  0  0  0  0
  9 10  1  0  0  0  0
  3 11  1  0  0  0  0
 11 12  1  0  0  0  0
 12 17  2  0  0  0  0
 12 13  1  0  0  0  0
 13 14  2  0  0  0  0
 14 15  1  0  0  0  0
 15 16  2  0  0  0  0
 16 17  1  0  0  0  0
M  END
> <ID>
372362

$$$$
372361
  -OEChem-05171416412D

 24 27  0     1  0  0  0  0  0999 V2000
    0.2283    5.1812    0.0000 C   0  0  0  0  0  0  0  0  0  0  0  0
    0.4363    6.1594    0.0000 C   0  0  0  0  0  0  0  0  0  0  0  0
   -0.3068    6.8286    0.0000 C   0  0  0  0  0  0  0  0  0  0  0  0
   -1.2619    6.5152    0.0000 C   0  0  0  0  0  0  0  0  0  0  0  0
   -2.0050    7.1844    0.0000 C   0  0  0  0  0  0  0  0  0  0  0  0
   -1.8027    8.1638    0.0000 C   0  0  0  0  0  0  0  0  0  0  0  0
   -0.8476    8.4771    0.0000 C   0  0  0  0  0  0  0  0  0  0  0  0
   -0.0948    7.8111    0.0000 C   0  0  0  0  0  0  0  0  0  0  0  0
    0.9714    4.5120    0.0000 C   0  0  3  0  0  0  0  0  0  0  0  0
    0.8660    3.5104    0.0000 C   0  0  3  0  0  0  0  0  0  0  0  0
   -0.0000    3.0104    0.0000 C   0  0  0  0  0  0  0  0  0  0  0  0
   -0.0000    2.0104    0.0000 N   0  0  0  0  0  0  0  0  0  0  0  0
   -0.8675    1.5027    0.0000 C   0  0  0  0  0  0  0  0  0  0  0  0
   -0.8675    0.4975    0.0000 C   0  0  0  0  0  0  0  0  0  0  0  0
    0.0000    0.0000    0.0000 C   0  0  0  0  0  0  0  0  0  0  0  0
    0.8675    0.4975    0.0000 C   0  0  0  0  0  0  0  0  0  0  0  0
    0.8675    1.5027    0.0000 C   0  0  0  0  0  0  0  0  0  0  0  0
    1.7860    3.1009    0.0000 O   0  0  0  0  0  0  0  0  0  0  0  0
    2.4600    3.8492    0.0000 C   0  0  0  0  0  0  0  0  0  0  0  0
    3.4657    3.8432    0.0000 C   0  0  0  0  0  0  0  0  0  0  0  0
    3.9634    4.7171    0.0000 C   0  0  0  0  0  0  0  0  0  0  0  0
    3.4606    5.5882    0.0000 C   0  0  0  0  0  0  0  0  0  0  0  0
    2.4600    5.5853    0.0000 C   0  0  0  0  0  0  0  0  0  0  0  0
    1.9565    4.7213    0.0000 C   0  0  0  0  0  0  0  0  0  0  0  0
  1  2  1  0  0  0  0
  2  3  1  0  0  0  0
  3  8  2  0  0  0  0
  3  4  1  0  0  0  0
  4  5  2  0  0  0  0
  5  6  1  0  0  0  0
  6  7  2  0  0  0  0
  7  8  1  0  0  0  0
  1  9  1  0  0  0  0
  9 24  1  0  0  0  0
  9 10  1  0  0  0  0
 10 11  1  0  0  0  0
 11 12  1  0  0  0  0
 12 17  1  0  0  0  0
 12 13  1  0  0  0  0
 13 14  1  0  0  0  0
 14 15  1  0  0  0  0
 15 16  1  0  0  0  0
 16 17  1  0  0  0  0
 10 18  1  0  0  0  0
 18 19  1  0  0  0  0
 19 24  2  0  0  0  0
 19 20  1  0  0  0  0
 20 21  2  0  0  0  0
 21 22  1  0  0  0  0
 22 23  2  0  0  0  0
 23 24  1  0  0  0  0
M  END
> <ID>
372361

$$$$
372352
  -OEChem-05171416412D

 18 20  0     1  0  0  0  0  0999 V2000
    0.2283    5.1812    0.0000 C   0  0  0  0  0  0  0  0  0  0  0  0
    0.9714    4.5120    0.0000 C   0  0  3  0  0  0  0  0  0  0  0  0
    0.8660    3.5104    0.0000 C   0  0  3  0  0  0  0  0  0  0  0  0
    1.7860    3.1009    0.0000 O   0  0  0  0  0  0  0  0  0  0  0  0
    2.4600    3.8492    0.0000 C   0  0  0  0  0  0  0  0  0  0  0  0
    3.4657    3.8432    0.0000 C   0  0  0  0  0  0  0  0  0  0  0  0
    3.9634    4.7171    0.0000 C   0  0  0  0  0  0  0  0  0  0  0  0
    3.4606    5.5882    0.0000 C   0  0  0  0  0  0  0  0  0  0  0  0
    2.4600    5.5853    0.0000 C   0  0  0  0  0  0  0  0  0  0  0  0
    1.9565    4.7213    0.0000 C   0  0  0  0  0  0  0  0  0  0  0  0
   -0.0000    3.0104    0.0000 C   0  0  0  0  0  0  0  0  0  0  0  0
   -0.8660    3.5104    0.0000 O   0  0  0  0  0  0  0  0  0  0  0  0
   -0.0000    2.0104    0.0000 N   0  0  0  0  0  0  0  0  0  0  0  0
   -0.8675    1.5027    0.0000 C   0  0  0  0  0  0  0  0  0  0  0  0
   -0.8675    0.4975    0.0000 C   0  0  0  0  0  0  0  0  0  0  0  0
    0.0000    0.0000    0.0000 C   0  0  0  0  0  0  0  0  0  0  0  0
    0.8675    0.4975    0.0000 C   0  0  0  0  0  0  0  0  0  0  0  0
    0.8675    1.5027    0.0000 C   0  0  0  0  0  0  0  0  0  0  0  0
  1  2  1  0  0  0  0
  2 10  1  0  0  0  0
  2  3  1  0  0  0  0
  3  4  1  0  0  0  0
  4  5  1  0  0  0  0
  5 10  2  0  0  0  0
  5  6  1  0  0  0  0
  6  7  2  0  0  0  0
  7  8  1  0  0  0  0
  8  9  2  0  0  0  0
  9 10  1  0  0  0  0
  3 11  1  0  0  0  0
 11 12  2  0  0  0  0
 11 13  1  0  0  0  0
 13 18  1  0  0  0  0
 13 14  1  0  0  0  0
 14 15  1  0  0  0  0
 15 16  1  0  0  0  0
 16 17  1  0  0  0  0
 17 18  1  0  0  0  0
M  END
> <ID>
372352

$$$$
372351
  -OEChem-05171416412D

 25 28  0     1  0  0  0  0  0999 V2000
   -0.8660    3.5104    0.0000 O   0  0  0  0  0  0  0  0  0  0  0  0
   -0.0000    3.0104    0.0000 C   0  0  0  0  0  0  0  0  0  0  0  0
    0.8660    3.5104    0.0000 C   0  0  3  0  0  0  0  0  0  0  0  0
    1.7860    3.1009    0.0000 O   0  0  0  0  0  0  0  0  0  0  0  0
    2.4600    3.8492    0.0000 C   0  0  0  0  0  0  0  0  0  0  0  0
    3.4657    3.8432    0.0000 C   0  0  0  0  0  0  0  0  0  0  0  0
    3.9634    4.7171    0.0000 C   0  0  0  0  0  0  0  0  0  0  0  0
    3.4606    5.5882    0.0000 C   0  0  0  0  0  0  0  0  0  0  0  0
    2.4600    5.5853    0.0000 C   0  0  0  0  0  0  0  0  0  0  0  0
    1.9565    4.7213    0.0000 C   0  0  0  0  0  0  0  0  0  0  0  0
    0.9714    4.5120    0.0000 C   0  0  3  0  0  0  0  0  0  0  0  0
    0.2283    5.1812    0.0000 C   0  0  0  0  0  0  0  0  0  0  0  0
   -0.7228    4.8723    0.0000 C   0  0  0  0  0  0  0  0  0  0  0  0
   -1.4659    5.5415    0.0000 C   0  0  0  0  0  0  0  0  0  0  0  0
   -2.4210    5.2282    0.0000 C   0  0  0  0  0  0  0  0  0  0  0  0
   -3.1641    5.8974    0.0000 C   0  0  0  0  0  0  0  0  0  0  0  0
   -2.9618    6.8767    0.0000 C   0  0  0  0  0  0  0  0  0  0  0  0
   -2.0067    7.1901    0.0000 C   0  0  0  0  0  0  0  0  0  0  0  0
   -1.2539    6.5241    0.0000 C   0  0  0  0  0  0  0  0  0  0  0  0
   -0.0000    2.0104    0.0000 N   0  0  0  0  0  0  0  0  0  0  0  0
   -0.8675    1.5027    0.0000 C   0  0  0  0  0  0  0  0  0  0  0  0
   -0.8675    0.4975    0.0000 C   0  0  0  0  0  0  0  0  0  0  0  0
    0.0000    0.0000    0.0000 C   0  0  0  0  0  0  0  0  0  0  0  0
    0.8675    0.4975    0.0000 C   0  0  0  0  0  0  0  0  0  0  0  0
    0.8675    1.5027    0.0000 C   0  0  0  0  0  0  0  0  0  0  0  0
  1  2  2  0  0  0  0
  2  3  1  0  0  0  0
  3 11  1  0  0  0  0
  3  4  1  0  0  0  0
  4  5  1  0  0  0  0
  5 10  2  0  0  0  0
  5  6  1  0  0  0  0
  6  7  2  0  0  0  0
  7  8  1  0  0  0  0
  8  9  2  0  0  0  0
  9 10  1  0  0  0  0
 10 11  1  0  0  0  0
 11 12  1  0  0  0  0
 12 13  1  0  0  0  0
 13 14  1  0  0  0  0
 14 19  2  0  0  0  0
 14 15  1  0  0  0  0
 15 16  2  0  0  0  0
 16 17  1  0  0  0  0
 17 18  2  0  0  0  0
 18 19  1  0  0  0  0
  2 20  1  0  0  0  0
 20 25  1  0  0  0  0
 20 21  1  0  0  0  0
 21 22  1  0  0  0  0
 22 23  1  0  0  0  0
 23 24  1  0  0  0  0
 24 25  1  0  0  0  0
M  END
> <ID>
372351

$$$$
372350
  -OEChem-05171416412D

 28 30  0     0  0  0  0  0  0999 V2000
    1.7304    7.0279    0.0000 C   0  0  0  0  0  0  0  0  0  0  0  0
    0.8615    7.5228    0.0000 C   0  0  0  0  0  0  0  0  0  0  0  0
    0.8556    8.5228    0.0000 O   0  0  0  0  0  0  0  0  0  0  0  0
   -0.0016    7.0177    0.0000 C   0  0  0  0  0  0  0  0  0  0  0  0
   -0.8736    7.5177    0.0000 C   0  0  0  0  0  0  0  0  0  0  0  0
   -1.7367    7.0127    0.0000 C   0  0  0  0  0  0  0  0  0  0  0  0
   -1.7367    6.0126    0.0000 C   0  0  0  0  0  0  0  0  0  0  0  0
   -0.8647    5.5126    0.0000 C   0  0  0  0  0  0  0  0  0  0  0  0
   -0.8647    4.5126    0.0000 O   0  0  0  0  0  0  0  0  0  0  0  0
    0.0014    4.0126    0.0000 C   0  0  0  0  0  0  0  0  0  0  0  0
    0.0014    3.0126    0.0000 C   0  0  0  0  0  0  0  0  0  0  0  0
   -0.8647    2.5126    0.0000 O   0  0  0  0  0  0  0  0  0  0  0  0
    0.8674    2.5126    0.0000 C   0  0  0  0  0  0  0  0  0  0  0  0
    0.8674    1.5126    0.0000 N   0  0  0  0  0  0  0  0  0  0  0  0
    0.0000    1.0051    0.0000 C   0  0  0  0  0  0  0  0  0  0  0  0
    0.0000    0.0000    0.0000 C   0  0  0  0  0  0  0  0  0  0  0  0
    0.8674   -0.4976    0.0000 N   0  0  0  0  0  0  0  0  0  0  0  0
    1.7348    0.0000    0.0000 C   0  0  0  0  0  0  0  0  0  0  0  0
    1.7348    1.0051    0.0000 C   0  0  0  0  0  0  0  0  0  0  0  0
    0.8674   -1.4976    0.0000 C   0  0  0  0  0  0  0  0  0  0  0  0
   -0.0046   -1.9976    0.0000 C   0  0  0  0  0  0  0  0  0  0  0  0
   -0.0047   -2.9977    0.0000 C   0  0  0  0  0  0  0  0  0  0  0  0
    0.8585   -3.5027    0.0000 C   0  0  0  0  0  0  0  0  0  0  0  0
    1.7305   -3.0027    0.0000 C   0  0  0  0  0  0  0  0  0  0  0  0
    2.5935   -3.5078    0.0000 C   0  0  0  0  0  0  0  0  0  0  0  0
    1.7394   -1.9976    0.0000 C   0  0  0  0  0  0  0  0  0  0  0  0
    2.6069   -1.5002    0.0000 C   0  0  0  0  0  0  0  0  0  0  0  0
    0.0073    6.0126    0.0000 C   0  0  0  0  0  0  0  0  0  0  0  0
  1  2  1  0  0  0  0
  2  3  2  0  0  0  0
  2  4  1  0  0  0  0
  4 28  2  0  0  0  0
  4  5  1  0  0  0  0
  5  6  2  0  0  0  0
  6  7  1  0  0  0  0
  7  8  2  0  0  0  0
  8  9  1  0  0  0  0
  9 10  1  0  0  0  0
 10 11  1  0  0  0  0
 11 12  2  0  0  0  0
 11 13  1  0  0  0  0
 13 14  1  0  0  0  0
 14 19  1  0  0  0  0
 14 15  1  0  0  0  0
 15 16  1  0  0  0  0
 16 17  1  0  0  0  0
 17 18  1  0  0  0  0
 18 19  1  0  0  0  0
 17 20  1  0  0  0  0
 20 26  2  0  0  0  0
 20 21  1  0  0  0  0
 21 22  2  0  0  0  0
 22 23  1  0  0  0  0
 23 24  2  0  0  0  0
 24 25  1  0  0  0  0
 24 26  1  0  0  0  0
 26 27  1  0  0  0  0
  8 28  1  0  0  0  0
M  END
> <ID>
372350

$$$$
372345
  -OEChem-05171416412D

 27 29  0     1  0  0  0  0  0999 V2000
    0.0078    9.0139    0.0000 C   0  0  0  0  0  0  0  0  0  0  0  0
   -0.8604    8.5177    0.0000 C   0  0  0  0  0  0  0  0  0  0  0  0
   -1.7242    9.0216    0.0000 O   0  0  0  0  0  0  0  0  0  0  0  0
   -0.8648    7.5178    0.0000 C   0  0  0  0  0  0  0  0  0  0  0  0
    0.0050    7.0139    0.0000 C   0  0  0  0  0  0  0  0  0  0  0  0
    0.0007    6.0139    0.0000 C   0  0  0  0  0  0  0  0  0  0  0  0
   -0.8647    5.5126    0.0000 C   0  0  0  0  0  0  0  0  0  0  0  0
   -0.8647    4.5126    0.0000 O   0  0  0  0  0  0  0  0  0  0  0  0
    0.0014    4.0126    0.0000 C   0  0  0  0  0  0  0  0  0  0  0  0
    0.0014    3.0126    0.0000 C   0  0  3  0  0  0  0  0  0  0  0  0
   -0.8647    2.5126    0.0000 O   0  0  0  0  0  0  0  0  0  0  0  0
    0.8674    2.5126    0.0000 C   0  0  0  0  0  0  0  0  0  0  0  0
    0.8674    1.5126    0.0000 N   0  0  0  0  0  0  0  0  0  0  0  0
    0.0000    1.0051    0.0000 C   0  0  0  0  0  0  0  0  0  0  0  0
    0.0000    0.0000    0.0000 C   0  0  0  0  0  0  0  0  0  0  0  0
    0.8674   -0.4976    0.0000 N   0  0  0  0  0  0  0  0  0  0  0  0
    1.7348    0.0000    0.0000 C   0  0  0  0  0  0  0  0  0  0  0  0
    1.7348    1.0051    0.0000 C   0  0  0  0  0  0  0  0  0  0  0  0
    0.8674   -1.4976    0.0000 C   0  0  0  0  0  0  0  0  0  0  0  0
    1.7327   -1.9989    0.0000 C   0  0  0  0  0  0  0  0  0  0  0  0
    1.7371   -2.9989    0.0000 C   0  0  0  0  0  0  0  0  0  0  0  0
    0.8673   -3.5028    0.0000 C   0  0  0  0  0  0  0  0  0  0  0  0
   -0.0069   -3.0066    0.0000 C   0  0  0  0  0  0  0  0  0  0  0  0
   -0.0024   -2.0015    0.0000 C   0  0  0  0  0  0  0  0  0  0  0  0
   -0.8677   -1.5002    0.0000 C   0  0  0  0  0  0  0  0  0  0  0  0
   -1.7344    6.0165    0.0000 C   0  0  0  0  0  0  0  0  0  0  0  0
   -1.7389    7.0216    0.0000 C   0  0  0  0  0  0  0  0  0  0  0  0
  1  2  1  0  0  0  0
  2  3  2  0  0  0  0
  2  4  1  0  0  0  0
  4 27  2  0  0  0  0
  4  5  1  0  0  0  0
  5  6  2  0  0  0  0
  6  7  1  0  0  0  0
  7  8  1  0  0  0  0
  8  9  1  0  0  0  0
  9 10  1  0  0  0  0
 10 11  1  0  0  0  0
 10 12  1  0  0  0  0
 12 13  1  0  0  0  0
 13 18  1  0  0  0  0
 13 14  1  0  0  0  0
 14 15  1  0  0  0  0
 15 16  1  0  0  0  0
 16 17  1  0  0  0  0
 17 18  1  0  0  0  0
 16 19  1  0  0  0  0
 19 24  2  0  0  0  0
 19 20  1  0  0  0  0
 20 21  2  0  0  0  0
 21 22  1  0  0  0  0
 22 23  2  0  0  0  0
 23 24  1  0  0  0  0
 24 25  1  0  0  0  0
  7 26  2  0  0  0  0
 26 27  1  0  0  0  0
M  END
> <ID>
372345

$$$$
372344
  -OEChem-05171416412D

 28 30  0     1  0  0  0  0  0999 V2000
    0.0078    9.0139    0.0000 C   0  0  0  0  0  0  0  0  0  0  0  0
   -0.8604    8.5177    0.0000 C   0  0  0  0  0  0  0  0  0  0  0  0
   -1.7242    9.0216    0.0000 O   0  0  0  0  0  0  0  0  0  0  0  0
   -0.8648    7.5178    0.0000 C   0  0  0  0  0  0  0  0  0  0  0  0
    0.0050    7.0139    0.0000 C   0  0  0  0  0  0  0  0  0  0  0  0
    0.0007    6.0139    0.0000 C   0  0  0  0  0  0  0  0  0  0  0  0
   -0.8647    5.5126    0.0000 C   0  0  0  0  0  0  0  0  0  0  0  0
   -0.8647    4.5126    0.0000 O   0  0  0  0  0  0  0  0  0  0  0  0
    0.0014    4.0126    0.0000 C   0  0  0  0  0  0  0  0  0  0  0  0
    0.0014    3.0126    0.0000 C   0  0  3  0  0  0  0  0  0  0  0  0
   -0.8647    2.5126    0.0000 O   0  0  0  0  0  0  0  0  0  0  0  0
    0.8674    2.5126    0.0000 C   0  0  0  0  0  0  0  0  0  0  0  0
    0.8674    1.5126    0.0000 N   0  0  0  0  0  0  0  0  0  0  0  0
    0.0000    1.0051    0.0000 C   0  0  0  0  0  0  0  0  0  0  0  0
    0.0000    0.0000    0.0000 C   0  0  0  0  0  0  0  0  0  0  0  0
    0.8674   -0.4976    0.0000 N   0  0  0  0  0  0  0  0  0  0  0  0
    1.7348    0.0000    0.0000 C   0  0  0  0  0  0  0  0  0  0  0  0
    1.7348    1.0051    0.0000 C   0  0  0  0  0  0  0  0  0  0  0  0
    0.8674   -1.4976    0.0000 C   0  0  0  0  0  0  0  0  0  0  0  0
   -0.0046   -1.9976    0.0000 C   0  0  0  0  0  0  0  0  0  0  0  0
   -0.0047   -2.9977    0.0000 C   0  0  0  0  0  0  0  0  0  0  0  0
    0.8585   -3.5027    0.0000 C   0  0  0  0  0  0  0  0  0  0  0  0
    1.7305   -3.0027    0.0000 C   0  0  0  0  0  0  0  0  0  0  0  0
    2.5935   -3.5078    0.0000 C   0  0  0  0  0  0  0  0  0  0  0  0
    1.7394   -1.9976    0.0000 C   0  0  0  0  0  0  0  0  0  0  0  0
    2.6069   -1.5002    0.0000 C   0  0  0  0  0  0  0  0  0  0  0  0
   -1.7344    6.0165    0.0000 C   0  0  0  0  0  0  0  0  0  0  0  0
   -1.7389    7.0216    0.0000 C   0  0  0  0  0  0  0  0  0  0  0  0
  1  2  1  0  0  0  0
  2  3  2  0  0  0  0
  2  4  1  0  0  0  0
  4 28  2  0  0  0  0
  4  5  1  0  0  0  0
  5  6  2  0  0  0  0
  6  7  1  0  0  0  0
  7  8  1  0  0  0  0
  8  9  1  0  0  0  0
  9 10  1  0  0  0  0
 10 11  1  0  0  0  0
 10 12  1  0  0  0  0
 12 13  1  0  0  0  0
 13 18  1  0  0  0  0
 13 14  1  0  0  0  0
 14 15  1  0  0  0  0
 15 16  1  0  0  0  0
 16 17  1  0  0  0  0
 17 18  1  0  0  0  0
 16 19  1  0  0  0  0
 19 25  2  0  0  0  0
 19 20  1  0  0  0  0
 20 21  2  0  0  0  0
 21 22  1  0  0  0  0
 22 23  2  0  0  0  0
 23 24  1  0  0  0  0
 23 25  1  0  0  0  0
 25 26  1  0  0  0  0
  7 27  2  0  0  0  0
 27 28  1  0  0  0  0
M  END
> <ID>
372344

$$$$
372341
  -OEChem-05171416412D

 21 22  0     0  0  0  0  0  0999 V2000
    3.4627   -3.0025    0.0000 O   0  0  0  0  0  0  0  0  0  0  0  0
    3.4641   -2.0025    0.0000 C   0  0  0  0  0  0  0  0  0  0  0  0
    4.3309   -1.5038    0.0000 O   0  0  0  0  0  0  0  0  0  0  0  0
    2.5988   -1.5013    0.0000 C   0  0  0  0  0  0  0  0  0  0  0  0
    2.6003   -0.5013    0.0000 O   0  0  0  0  0  0  0  0  0  0  0  0
    1.7350    0.0000    0.0000 C   0  0  0  0  0  0  0  0  0  0  0  0
    0.8675   -0.4975    0.0000 C   0  0  0  0  0  0  0  0  0  0  0  0
    0.0000    0.0000    0.0000 C   0  0  0  0  0  0  0  0  0  0  0  0
   -0.0000    1.0052    0.0000 C   0  0  0  0  0  0  0  0  0  0  0  0
    0.8675    1.5129    0.0000 C   0  0  0  0  0  0  0  0  0  0  0  0
    1.7350    1.0052    0.0000 C   0  0  0  0  0  0  0  0  0  0  0  0
    2.6025    1.5026    0.0000 C   0  0  0  0  0  0  0  0  0  0  0  0
    3.4670    1.0001    0.0000 O   0  0  0  0  0  0  0  0  0  0  0  0
    2.6054    2.5026    0.0000 C   0  0  0  0  0  0  0  0  0  0  0  0
    3.4729    3.0001    0.0000 C   0  0  0  0  0  0  0  0  0  0  0  0
    3.4759    4.0001    0.0000 C   0  0  0  0  0  0  0  0  0  0  0  0
    2.6054    4.5027    0.0000 C   0  0  0  0  0  0  0  0  0  0  0  0
    2.6083    5.5027    0.0000 C   0  0  0  0  0  0  0  0  0  0  0  0
    3.4729    6.0052    0.0000 C   0  0  0  0  0  0  0  0  0  0  0  0
    4.3434    5.5026    0.0000 C   0  0  0  0  0  0  0  0  0  0  0  0
    4.3493    4.4975    0.0000 C   0  0  0  0  0  0  0  0  0  0  0  0
  1  2  1  0  0  0  0
  2  3  2  0  0  0  0
  2  4  1  0  0  0  0
  4  5  1  0  0  0  0
  5  6  1  0  0  0  0
  6 11  2  0  0  0  0
  6  7  1  0  0  0  0
  7  8  2  0  0  0  0
  8  9  1  0  0  0  0
  9 10  2  0  0  0  0
 10 11  1  0  0  0  0
 11 12  1  0  0  0  0
 12 13  2  0  0  0  0
 12 14  1  0  0  0  0
 14 15  1  0  0  0  0
 15 16  1  0  0  0  0
 16 21  2  0  0  0  0
 16 17  1  0  0  0  0
 17 18  2  0  0  0  0
 18 19  1  0  0  0  0
 19 20  2  0  0  0  0
 20 21  1  0  0  0  0
M  END
> <ID>
372341

$$$$
372340
  -OEChem-05171416412D

 23 24  0     0  0  0  0  0  0999 V2000
    4.3265   -4.5038    0.0000 C   0  0  0  0  0  0  0  0  0  0  0  0
    4.3280   -3.5038    0.0000 C   0  0  0  0  0  0  0  0  0  0  0  0
    3.4627   -3.0025    0.0000 O   0  0  0  0  0  0  0  0  0  0  0  0
    3.4641   -2.0025    0.0000 C   0  0  0  0  0  0  0  0  0  0  0  0
    4.3309   -1.5038    0.0000 O   0  0  0  0  0  0  0  0  0  0  0  0
    2.5988   -1.5013    0.0000 C   0  0  0  0  0  0  0  0  0  0  0  0
    2.6003   -0.5013    0.0000 O   0  0  0  0  0  0  0  0  0  0  0  0
    1.7350    0.0000    0.0000 C   0  0  0  0  0  0  0  0  0  0  0  0
    0.8675   -0.4975    0.0000 C   0  0  0  0  0  0  0  0  0  0  0  0
    0.0000    0.0000    0.0000 C   0  0  0  0  0  0  0  0  0  0  0  0
   -0.0000    1.0052    0.0000 C   0  0  0  0  0  0  0  0  0  0  0  0
    0.8675    1.5129    0.0000 C   0  0  0  0  0  0  0  0  0  0  0  0
    1.7350    1.0052    0.0000 C   0  0  0  0  0  0  0  0  0  0  0  0
    2.6025    1.5026    0.0000 C   0  0  0  0  0  0  0  0  0  0  0  0
    3.4670    1.0001    0.0000 O   0  0  0  0  0  0  0  0  0  0  0  0
    2.6054    2.5026    0.0000 C   0  0  0  0  0  0  0  0  0  0  0  0
    3.4729    3.0001    0.0000 C   0  0  0  0  0  0  0  0  0  0  0  0
    3.4759    4.0001    0.0000 C   0  0  0  0  0  0  0  0  0  0  0  0
    2.6054    4.5027    0.0000 C   0  0  0  0  0  0  0  0  0  0  0  0
    2.6083    5.5027    0.0000 C   0  0  0  0  0  0  0  0  0  0  0  0
    3.4729    6.0052    0.0000 C   0  0  0  0  0  0  0  0  0  0  0  0
    4.3434    5.5026    0.0000 C   0  0  0  0  0  0  0  0  0  0  0  0
    4.3493    4.4975    0.0000 C   0  0  0  0  0  0  0  0  0  0  0  0
  1  2  1  0  0  0  0
  2  3  1  0  0  0  0
  3  4  1  0  0  0  0
  4  5  2  0  0  0  0
  4  6  1  0  0  0  0
  6  7  1  0  0  0  0
  7  8  1  0  0  0  0
  8 13  2  0  0  0  0
  8  9  1  0  0  0  0
  9 10  2  0  0  0  0
 10 11  1  0  0  0  0
 11 12  2  0  0  0  0
 12 13  1  0  0  0  0
 13 14  1  0  0  0  0
 14 15  2  0  0  0  0
 14 16  1  0  0  0  0
 16 17  1  0  0  0  0
 17 18  1  0  0  0  0
 18 23  2  0  0  0  0
 18 19  1  0  0  0  0
 19 20  2  0  0  0  0
 20 21  1  0  0  0  0
 21 22  2  0  0  0  0
 22 23  1  0  0  0  0
M  END
> <ID>
372340

$$$$
372339
  -OEChem-05171416412D

 18 20  0     1  0  0  0  0  0999 V2000
    1.7377    6.0190    0.0000 O   0  0  0  0  0  0  0  0  0  0  0  0
    1.7373    5.0190    0.0000 C   0  0  0  0  0  0  0  0  0  0  0  0
    0.8650    4.5174    0.0000 C   0  0  0  0  0  0  0  0  0  0  0  0
    0.8660    3.5104    0.0000 C   0  0  3  0  0  0  0  0  0  0  0  0
   -0.0000    3.0104    0.0000 C   0  0  0  0  0  0  0  0  0  0  0  0
   -0.0000    2.0104    0.0000 N   0  0  0  0  0  0  0  0  0  0  0  0
   -0.8675    1.5027    0.0000 C   0  0  0  0  0  0  0  0  0  0  0  0
   -0.8675    0.4975    0.0000 C   0  0  0  0  0  0  0  0  0  0  0  0
    0.0000    0.0000    0.0000 C   0  0  0  0  0  0  0  0  0  0  0  0
    0.8675    0.4975    0.0000 C   0  0  0  0  0  0  0  0  0  0  0  0
    0.8675    1.5027    0.0000 C   0  0  0  0  0  0  0  0  0  0  0  0
    1.7394    3.0049    0.0000 O   0  0  0  0  0  0  0  0  0  0  0  0
    2.6060    3.5122    0.0000 C   0  0  0  0  0  0  0  0  0  0  0  0
    3.4766    3.0061    0.0000 C   0  0  0  0  0  0  0  0  0  0  0  0
    4.3434    3.5162    0.0000 C   0  0  0  0  0  0  0  0  0  0  0  0
    4.3411    4.5219    0.0000 C   0  0  0  0  0  0  0  0  0  0  0  0
    3.4719    5.0177    0.0000 C   0  0  0  0  0  0  0  0  0  0  0  0
    2.6051    4.5191    0.0000 C   0  0  0  0  0  0  0  0  0  0  0  0
  1  2  2  0  0  0  0
  2 18  1  0  0  0  0
  2  3  1  0  0  0  0
  3  4  1  0  0  0  0
  4  5  1  0  0  0  0
  5  6  1  0  0  0  0
  6 11  1  0  0  0  0
  6  7  1  0  0  0  0
  7  8  1  0  0  0  0
  8  9  1  0  0  0  0
  9 10  1  0  0  0  0
 10 11  1  0  0  0  0
  4 12  1  0  0  0  0
 12 13  1  0  0  0  0
 13 18  2  0  0  0  0
 13 14  1  0  0  0  0
 14 15  2  0  0  0  0
 15 16  1  0  0  0  0
 16 17  2  0  0  0  0
 17 18  1  0  0  0  0
M  END
> <ID>
372339

$$$$
372335
  -OEChem-05171416412D

 36 40  0     1  0  0  0  0  0999 V2000
    0.8631    5.5177    0.0000 C   0  0  0  0  0  0  0  0  0  0  0  0
    0.8675    4.5178    0.0000 C   0  0  0  0  0  0  0  0  0  0  0  0
   -0.0023    4.0139    0.0000 C   0  0  0  0  0  0  0  0  0  0  0  0
    0.0021    3.0139    0.0000 C   0  0  0  0  0  0  0  0  0  0  0  0
    0.8674    2.5126    0.0000 C   0  0  0  0  0  0  0  0  0  0  0  0
    0.8674    1.5126    0.0000 N   0  0  0  0  0  0  0  0  0  0  0  0
    0.0000    1.0051    0.0000 C   0  0  0  0  0  0  0  0  0  0  0  0
    0.0000    0.0000    0.0000 C   0  0  0  0  0  0  0  0  0  0  0  0
    0.8674   -0.4976    0.0000 N   0  0  0  0  0  0  0  0  0  0  0  0
    0.8674   -1.4976    0.0000 C   0  0  0  0  0  0  0  0  0  0  0  0
    1.7334   -1.9976    0.0000 C   0  0  3  0  0  0  0  0  0  0  0  0
    2.5995   -1.4976    0.0000 O   0  0  0  0  0  0  0  0  0  0  0  0
    1.7334   -2.9976    0.0000 C   0  0  0  0  0  0  0  0  0  0  0  0
    2.5995   -3.4976    0.0000 O   0  0  0  0  0  0  0  0  0  0  0  0
    2.5995   -4.4976    0.0000 C   0  0  0  0  0  0  0  0  0  0  0  0
    1.7314   -5.0055    0.0000 C   0  0  0  0  0  0  0  0  0  0  0  0
    1.7315   -6.0113    0.0000 C   0  0  0  0  0  0  0  0  0  0  0  0
    2.5995   -6.5092    0.0000 C   0  0  0  0  0  0  0  0  0  0  0  0
    3.4675   -6.0126    0.0000 C   0  0  0  0  0  0  0  0  0  0  0  0
    4.4253   -6.3239    0.0000 C   0  0  0  0  0  0  0  0  0  0  0  0
    5.0173   -5.5091    0.0000 C   0  0  3  0  0  0  0  0  0  0  0  0
    6.0173   -5.5090    0.0000 C   0  0  0  0  0  0  0  0  0  0  0  0
    6.5172   -4.6430    0.0000 C   0  0  0  0  0  0  0  0  0  0  0  0
    6.0120   -3.7740    0.0000 C   0  0  0  0  0  0  0  0  0  0  0  0
    6.5119   -2.9079    0.0000 C   0  0  0  0  0  0  0  0  0  0  0  0
    7.5119   -2.9020    0.0000 C   0  0  0  0  0  0  0  0  0  0  0  0
    8.0171   -3.7710    0.0000 C   0  0  0  0  0  0  0  0  0  0  0  0
    7.5223   -4.6459    0.0000 C   0  0  0  0  0  0  0  0  0  0  0  0
    4.4253   -4.6945    0.0000 C   0  0  0  0  0  0  0  0  0  0  0  0
    4.7343   -3.7435    0.0000 O   0  0  0  0  0  0  0  0  0  0  0  0
    3.4675   -5.0055    0.0000 C   0  0  0  0  0  0  0  0  0  0  0  0
    1.7348    0.0000    0.0000 C   0  0  0  0  0  0  0  0  0  0  0  0
    1.7348    1.0051    0.0000 C   0  0  0  0  0  0  0  0  0  0  0  0
    1.7372    3.0165    0.0000 C   0  0  0  0  0  0  0  0  0  0  0  0
    2.6025    2.5152    0.0000 C   0  0  0  0  0  0  0  0  0  0  0  0
    1.7417    4.0216    0.0000 C   0  0  0  0  0  0  0  0  0  0  0  0
  1  2  1  0  0  0  0
  2 36  2  0  0  0  0
  2  3  1  0  0  0  0
  3  4  2  0  0  0  0
  4  5  1  0  0  0  0
  5  6  1  0  0  0  0
  6 33  1  0  0  0  0
  6  7  1  0  0  0  0
  7  8  1  0  0  0  0
  8  9  1  0  0  0  0
  9 10  1  0  0  0  0
 10 11  1  0  0  0  0
 11 12  1  0  0  0  0
 11 13  1  0  0  0  0
 13 14  1  0  0  0  0
 14 15  1  0  0  0  0
 15 31  2  0  0  0  0
 15 16  1  0  0  0  0
 16 17  2  0  0  0  0
 17 18  1  0  0  0  0
 18 19  2  0  0  0  0
 19 31  1  0  0  0  0
 19 20  1  0  0  0  0
 20 21  1  0  0  0  0
 21 22  1  0  0  0  0
 22 23  1  0  0  0  0
 23 28  2  0  0  0  0
 23 24  1  0  0  0  0
 24 25  2  0  0  0  0
 25 26  1  0  0  0  0
 26 27  2  0  0  0  0
 27 28  1  0  0  0  0
 21 29  1  0  0  0  0
 29 30  2  0  0  0  0
 29 31  1  0  0  0  0
  9 32  1  0  0  0  0
 32 33  1  0  0  0  0
  5 34  2  0  0  0  0
 34 35  1  0  0  0  0
 34 36  1  0  0  0  0
M  END
> <ID>
372335

$$$$
372334
  -OEChem-05171416412D

 28 31  0     1  0  0  0  0  0999 V2000
   -1.7321    3.0104    0.0000 O   0  0  0  0  0  0  0  0  0  0  0  0
   -0.8660    3.5104    0.0000 C   0  0  3  0  0  0  0  0  0  0  0  0
   -0.8660    4.5104    0.0000 C   0  0  0  0  0  0  0  0  0  0  0  0
   -1.7321    5.0104    0.0000 O   0  0  0  0  0  0  0  0  0  0  0  0
   -1.7321    6.0104    0.0000 C   0  0  0  0  0  0  0  0  0  0  0  0
   -0.8641    6.5183    0.0000 C   0  0  0  0  0  0  0  0  0  0  0  0
   -0.8641    7.5241    0.0000 C   0  0  0  0  0  0  0  0  0  0  0  0
   -1.7321    8.0220    0.0000 C   0  0  0  0  0  0  0  0  0  0  0  0
   -2.6001    7.5254    0.0000 C   0  0  0  0  0  0  0  0  0  0  0  0
   -3.5579    7.8367    0.0000 C   0  0  0  0  0  0  0  0  0  0  0  0
   -3.8668    8.7878    0.0000 O   0  0  0  0  0  0  0  0  0  0  0  0
   -4.1499    7.0219    0.0000 C   0  0  3  0  0  0  0  0  0  0  0  0
   -5.1499    7.0218    0.0000 C   0  0  0  0  0  0  0  0  0  0  0  0
   -5.6498    6.1558    0.0000 C   0  0  0  0  0  0  0  0  0  0  0  0
   -5.1446    5.2868    0.0000 C   0  0  0  0  0  0  0  0  0  0  0  0
   -5.6445    4.4207    0.0000 C   0  0  0  0  0  0  0  0  0  0  0  0
   -6.6445    4.4148    0.0000 C   0  0  0  0  0  0  0  0  0  0  0  0
   -7.1497    5.2838    0.0000 C   0  0  0  0  0  0  0  0  0  0  0  0
   -6.6549    6.1587    0.0000 C   0  0  0  0  0  0  0  0  0  0  0  0
   -3.5579    6.2073    0.0000 C   0  0  0  0  0  0  0  0  0  0  0  0
   -2.6001    6.5183    0.0000 C   0  0  0  0  0  0  0  0  0  0  0  0
   -0.0000    3.0104    0.0000 C   0  0  0  0  0  0  0  0  0  0  0  0
   -0.0000    2.0104    0.0000 N   0  0  0  0  0  0  0  0  0  0  0  0
   -0.8675    1.5027    0.0000 C   0  0  0  0  0  0  0  0  0  0  0  0
   -0.8675    0.4975    0.0000 C   0  0  0  0  0  0  0  0  0  0  0  0
    0.0000    0.0000    0.0000 C   0  0  0  0  0  0  0  0  0  0  0  0
    0.8675    0.4975    0.0000 C   0  0  0  0  0  0  0  0  0  0  0  0
    0.8675    1.5027    0.0000 C   0  0  0  0  0  0  0  0  0  0  0  0
  1  2  1  0  0  0  0
  2  3  1  0  0  0  0
  3  4  1  0  0  0  0
  4  5  1  0  0  0  0
  5 21  2  0  0  0  0
  5  6  1  0  0  0  0
  6  7  2  0  0  0  0
  7  8  1  0  0  0  0
  8  9  2  0  0  0  0
  9 21  1  0  0  0  0
  9 10  1  0  0  0  0
 10 11  2  0  0  0  0
 10 12  1  0  0  0  0
 12 13  1  0  0  0  0
 13 14  1  0  0  0  0
 14 19  2  0  0  0  0
 14 15  1  0  0  0  0
 15 16  2  0  0  0  0
 16 17  1  0  0  0  0
 17 18  2  0  0  0  0
 18 19  1  0  0  0  0
 12 20  1  0  0  0  0
 20 21  1  0  0  0  0
  2 22  1  0  0  0  0
 22 23  1  0  0  0  0
 23 28  1  0  0  0  0
 23 24  1  0  0  0  0
 24 25  1  0  0  0  0
 25 26  1  0  0  0  0
 26 27  1  0  0  0  0
 27 28  1  0  0  0  0
M  END
> <ID>
372334

$$$$
372330
  -OEChem-05171416412D

 28 31  0     1  0  0  0  0  0999 V2000
   -1.7321    3.0104    0.0000 O   0  0  0  0  0  0  0  0  0  0  0  0
   -0.8660    3.5104    0.0000 C   0  0  3  0  0  0  0  0  0  0  0  0
   -0.8660    4.5104    0.0000 C   0  0  0  0  0  0  0  0  0  0  0  0
   -1.7321    5.0104    0.0000 O   0  0  0  0  0  0  0  0  0  0  0  0
   -1.7321    6.0104    0.0000 C   0  0  0  0  0  0  0  0  0  0  0  0
   -0.8641    6.5183    0.0000 C   0  0  0  0  0  0  0  0  0  0  0  0
   -0.8641    7.5241    0.0000 C   0  0  0  0  0  0  0  0  0  0  0  0
   -1.7321    8.0220    0.0000 C   0  0  0  0  0  0  0  0  0  0  0  0
   -2.6001    7.5254    0.0000 C   0  0  0  0  0  0  0  0  0  0  0  0
   -3.5579    7.8367    0.0000 C   0  0  0  0  0  0  0  0  0  0  0  0
   -4.1499    7.0219    0.0000 C   0  0  3  0  0  0  0  0  0  0  0  0
   -5.1499    7.0218    0.0000 C   0  0  0  0  0  0  0  0  0  0  0  0
   -5.6498    6.1558    0.0000 C   0  0  0  0  0  0  0  0  0  0  0  0
   -5.1446    5.2868    0.0000 C   0  0  0  0  0  0  0  0  0  0  0  0
   -5.6445    4.4207    0.0000 C   0  0  0  0  0  0  0  0  0  0  0  0
   -6.6445    4.4148    0.0000 C   0  0  0  0  0  0  0  0  0  0  0  0
   -7.1497    5.2838    0.0000 C   0  0  0  0  0  0  0  0  0  0  0  0
   -6.6549    6.1587    0.0000 C   0  0  0  0  0  0  0  0  0  0  0  0
   -3.5579    6.2073    0.0000 C   0  0  0  0  0  0  0  0  0  0  0  0
   -3.8669    5.2563    0.0000 O   0  0  0  0  0  0  0  0  0  0  0  0
   -2.6001    6.5183    0.0000 C   0  0  0  0  0  0  0  0  0  0  0  0
   -0.0000    3.0104    0.0000 C   0  0  0  0  0  0  0  0  0  0  0  0
   -0.0000    2.0104    0.0000 N   0  0  0  0  0  0  0  0  0  0  0  0
   -0.8675    1.5027    0.0000 C   0  0  0  0  0  0  0  0  0  0  0  0
   -0.8675    0.4975    0.0000 C   0  0  0  0  0  0  0  0  0  0  0  0
    0.0000    0.0000    0.0000 C   0  0  0  0  0  0  0  0  0  0  0  0
    0.8675    0.4975    0.0000 C   0  0  0  0  0  0  0  0  0  0  0  0
    0.8675    1.5027    0.0000 C   0  0  0  0  0  0  0  0  0  0  0  0
  1  2  1  0  0  0  0
  2  3  1  0  0  0  0
  3  4  1  0  0  0  0
  4  5  1  0  0  0  0
  5 21  2  0  0  0  0
  5  6  1  0  0  0  0
  6  7  2  0  0  0  0
  7  8  1  0  0  0  0
  8  9  2  0  0  0  0
  9 21  1  0  0  0  0
  9 10  1  0  0  0  0
 10 11  1  0  0  0  0
 11 12  1  0  0  0  0
 12 13  1  0  0  0  0
 13 18  2  0  0  0  0
 13 14  1  0  0  0  0
 14 15  2  0  0  0  0
 15 16  1  0  0  0  0
 16 17  2  0  0  0  0
 17 18  1  0  0  0  0
 11 19  1  0  0  0  0
 19 20  2  0  0  0  0
 19 21  1  0  0  0  0
  2 22  1  0  0  0  0
 22 23  1  0  0  0  0
 23 28  1  0  0  0  0
 23 24  1  0  0  0  0
 24 25  1  0  0  0  0
 25 26  1  0  0  0  0
 26 27  1  0  0  0  0
 27 28  1  0  0  0  0
M  END
> <ID>
372330

$$$$
372329
  -OEChem-05171416412D

 21 23  0     1  0  0  0  0  0999 V2000
   -1.7321    3.0104    0.0000 O   0  0  0  0  0  0  0  0  0  0  0  0
   -0.8660    3.5104    0.0000 C   0  0  3  0  0  0  0  0  0  0  0  0
   -0.8660    4.5104    0.0000 C   0  0  0  0  0  0  0  0  0  0  0  0
   -1.7321    5.0104    0.0000 O   0  0  0  0  0  0  0  0  0  0  0  0
   -1.7321    6.0104    0.0000 C   0  0  0  0  0  0  0  0  0  0  0  0
   -0.8641    6.5183    0.0000 C   0  0  0  0  0  0  0  0  0  0  0  0
   -0.8641    7.5241    0.0000 C   0  0  0  0  0  0  0  0  0  0  0  0
   -1.7321    8.0220    0.0000 C   0  0  0  0  0  0  0  0  0  0  0  0
   -2.6001    7.5254    0.0000 C   0  0  0  0  0  0  0  0  0  0  0  0
   -3.5579    7.8367    0.0000 C   0  0  0  0  0  0  0  0  0  0  0  0
   -3.8668    8.7878    0.0000 O   0  0  0  0  0  0  0  0  0  0  0  0
   -4.1499    7.0219    0.0000 C   0  0  0  0  0  0  0  0  0  0  0  0
   -3.5579    6.2073    0.0000 C   0  0  0  0  0  0  0  0  0  0  0  0
   -2.6001    6.5183    0.0000 C   0  0  0  0  0  0  0  0  0  0  0  0
   -0.0000    3.0104    0.0000 C   0  0  0  0  0  0  0  0  0  0  0  0
   -0.0000    2.0104    0.0000 N   0  0  0  0  0  0  0  0  0  0  0  0
   -0.8675    1.5027    0.0000 C   0  0  0  0  0  0  0  0  0  0  0  0
   -0.8675    0.4975    0.0000 C   0  0  0  0  0  0  0  0  0  0  0  0
    0.0000    0.0000    0.0000 C   0  0  0  0  0  0  0  0  0  0  0  0
    0.8675    0.4975    0.0000 C   0  0  0  0  0  0  0  0  0  0  0  0
    0.8675    1.5027    0.0000 C   0  0  0  0  0  0  0  0  0  0  0  0
  1  2  1  0  0  0  0
  2  3  1  0  0  0  0
  3  4  1  0  0  0  0
  4  5  1  0  0  0  0
  5 14  2  0  0  0  0
  5  6  1  0  0  0  0
  6  7  2  0  0  0  0
  7  8  1  0  0  0  0
  8  9  2  0  0  0  0
  9 14  1  0  0  0  0
  9 10  1  0  0  0  0
 10 11  2  0  0  0  0
 10 12  1  0  0  0  0
 12 13  1  0  0  0  0
 13 14  1  0  0  0  0
  2 15  1  0  0  0  0
 15 16  1  0  0  0  0
 16 21  1  0  0  0  0
 16 17  1  0  0  0  0
 17 18  1  0  0  0  0
 18 19  1  0  0  0  0
 19 20  1  0  0  0  0
 20 21  1  0  0  0  0
M  END
> <ID>
372329

$$$$
372327
  -OEChem-05171416412D

 33 35  0     1  0  0  0  0  0999 V2000
    2.5930   -5.5013    0.0000 C   0  0  0  0  0  0  0  0  0  0  0  0
    3.4598   -5.0025    0.0000 C   0  0  0  0  0  0  0  0  0  0  0  0
    2.9611   -4.1358    0.0000 C   0  0  0  0  0  0  0  0  0  0  0  0
    3.9585   -5.8693    0.0000 C   0  0  0  0  0  0  0  0  0  0  0  0
    4.3265   -4.5038    0.0000 C   0  0  3  0  0  0  0  0  0  0  0  0
    4.3280   -3.5038    0.0000 N   0  0  0  0  0  0  0  0  0  0  0  0
    3.4627   -3.0025    0.0000 C   0  0  0  0  0  0  0  0  0  0  0  0
    3.4641   -2.0025    0.0000 C   0  0  3  0  0  0  0  0  0  0  0  0
    4.3309   -1.5038    0.0000 O   0  0  0  0  0  0  0  0  0  0  0  0
    2.5988   -1.5013    0.0000 C   0  0  0  0  0  0  0  0  0  0  0  0
    2.6003   -0.5013    0.0000 O   0  0  0  0  0  0  0  0  0  0  0  0
    1.7350    0.0000    0.0000 C   0  0  0  0  0  0  0  0  0  0  0  0
    0.8675   -0.4975    0.0000 C   0  0  0  0  0  0  0  0  0  0  0  0
    0.0000    0.0000    0.0000 C   0  0  0  0  0  0  0  0  0  0  0  0
   -0.0000    1.0052    0.0000 C   0  0  0  0  0  0  0  0  0  0  0  0
    0.8675    1.5129    0.0000 C   0  0  0  0  0  0  0  0  0  0  0  0
    1.7350    1.0052    0.0000 C   0  0  0  0  0  0  0  0  0  0  0  0
    2.6025    1.5026    0.0000 C   0  0  0  0  0  0  0  0  0  0  0  0
    3.4670    1.0001    0.0000 O   0  0  0  0  0  0  0  0  0  0  0  0
    2.6054    2.5026    0.0000 C   0  0  0  0  0  0  0  0  0  0  0  0
    3.4729    3.0001    0.0000 C   0  0  0  0  0  0  0  0  0  0  0  0
    3.4759    4.0001    0.0000 C   0  0  0  0  0  0  0  0  0  0  0  0
    2.6054    4.5027    0.0000 C   0  0  0  0  0  0  0  0  0  0  0  0
    2.6083    5.5027    0.0000 C   0  0  0  0  0  0  0  0  0  0  0  0
    3.4729    6.0052    0.0000 C   0  0  0  0  0  0  0  0  0  0  0  0
    4.3434    5.5026    0.0000 C   0  0  0  0  0  0  0  0  0  0  0  0
    4.3493    4.4975    0.0000 C   0  0  0  0  0  0  0  0  0  0  0  0
    5.1918   -5.0050    0.0000 C   0  0  0  0  0  0  0  0  0  0  0  0
    6.0616   -4.5011    0.0000 C   0  0  0  0  0  0  0  0  0  0  0  0
    6.9270   -5.0023    0.0000 C   0  0  0  0  0  0  0  0  0  0  0  0
    6.9314   -6.0024    0.0000 C   0  0  0  0  0  0  0  0  0  0  0  0
    6.0616   -6.5063    0.0000 C   0  0  0  0  0  0  0  0  0  0  0  0
    5.1874   -6.0102    0.0000 C   0  0  0  0  0  0  0  0  0  0  0  0
  1  2  1  0  0  0  0
  2  3  1  0  0  0  0
  2  4  1  0  0  0  0
  2  5  1  0  0  0  0
  5  6  1  0  0  0  0
  6  7  1  0  0  0  0
  7  8  1  0  0  0  0
  8  9  1  0  0  0  0
  8 10  1  0  0  0  0
 10 11  1  0  0  0  0
 11 12  1  0  0  0  0
 12 17  2  0  0  0  0
 12 13  1  0  0  0  0
 13 14  2  0  0  0  0
 14 15  1  0  0  0  0
 15 16  2  0  0  0  0
 16 17  1  0  0  0  0
 17 18  1  0  0  0  0
 18 19  2  0  0  0  0
 18 20  1  0  0  0  0
 20 21  1  0  0  0  0
 21 22  1  0  0  0  0
 22 27  2  0  0  0  0
 22 23  1  0  0  0  0
 23 24  2  0  0  0  0
 24 25  1  0  0  0  0
 25 26  2  0  0  0  0
 26 27  1  0  0  0  0
  5 28  1  0  0  0  0
 28 33  2  0  0  0  0
 28 29  1  0  0  0  0
 29 30  2  0  0  0  0
 30 31  1  0  0  0  0
 31 32  2  0  0  0  0
 32 33  1  0  0  0  0
M  END
> <ID>
372327

$$$$
372326
  -OEChem-05171416412D

 22 24  0     1  0  0  0  0  0999 V2000
   -5.1499    7.0218    0.0000 C   0  0  0  0  0  0  0  0  0  0  0  0
   -4.1499    7.0219    0.0000 C   0  0  3  0  0  0  0  0  0  0  0  0
   -3.5579    7.8367    0.0000 C   0  0  0  0  0  0  0  0  0  0  0  0
   -2.6001    7.5254    0.0000 C   0  0  0  0  0  0  0  0  0  0  0  0
   -1.7321    8.0220    0.0000 C   0  0  0  0  0  0  0  0  0  0  0  0
   -0.8641    7.5241    0.0000 C   0  0  0  0  0  0  0  0  0  0  0  0
   -0.8641    6.5183    0.0000 C   0  0  0  0  0  0  0  0  0  0  0  0
   -1.7321    6.0104    0.0000 C   0  0  0  0  0  0  0  0  0  0  0  0
   -1.7321    5.0104    0.0000 O   0  0  0  0  0  0  0  0  0  0  0  0
   -0.8660    4.5104    0.0000 C   0  0  0  0  0  0  0  0  0  0  0  0
   -0.8660    3.5104    0.0000 C   0  0  3  0  0  0  0  0  0  0  0  0
   -1.7321    3.0104    0.0000 O   0  0  0  0  0  0  0  0  0  0  0  0
   -0.0000    3.0104    0.0000 C   0  0  0  0  0  0  0  0  0  0  0  0
   -0.0000    2.0104    0.0000 N   0  0  0  0  0  0  0  0  0  0  0  0
   -0.8675    1.5027    0.0000 C   0  0  0  0  0  0  0  0  0  0  0  0
   -0.8675    0.4975    0.0000 C   0  0  0  0  0  0  0  0  0  0  0  0
    0.0000    0.0000    0.0000 C   0  0  0  0  0  0  0  0  0  0  0  0
    0.8675    0.4975    0.0000 C   0  0  0  0  0  0  0  0  0  0  0  0
    0.8675    1.5027    0.0000 C   0  0  0  0  0  0  0  0  0  0  0  0
   -2.6001    6.5183    0.0000 C   0  0  0  0  0  0  0  0  0  0  0  0
   -3.5579    6.2073    0.0000 C   0  0  0  0  0  0  0  0  0  0  0  0
   -3.8669    5.2563    0.0000 O   0  0  0  0  0  0  0  0  0  0  0  0
  1  2  1  0  0  0  0
  2 21  1  0  0  0  0
  2  3  1  0  0  0  0
  3  4  1  0  0  0  0
  4 20  2  0  0  0  0
  4  5  1  0  0  0  0
  5  6  2  0  0  0  0
  6  7  1  0  0  0  0
  7  8  2  0  0  0  0
  8  9  1  0  0  0  0
  9 10  1  0  0  0  0
 10 11  1  0  0  0  0
 11 12  1  0  0  0  0
 11 13  1  0  0  0  0
 13 14  1  0  0  0  0
 14 19  1  0  0  0  0
 14 15  1  0  0  0  0
 15 16  1  0  0  0  0
 16 17  1  0  0  0  0
 17 18  1  0  0  0  0
 18 19  1  0  0  0  0
  8 20  1  0  0  0  0
 20 21  1  0  0  0  0
 21 22  2  0  0  0  0
M  END
> <ID>
372326

$$$$
372323
  -OEChem-05171416412D

 21 22  0     1  0  0  0  0  0999 V2000
    0.0015    5.0130    0.0000 C   0  0  0  0  0  0  0  0  0  0  0  0
    0.0030    6.0130    0.0000 C   0  0  0  0  0  0  0  0  0  0  0  0
    0.8698    6.5117    0.0000 O   0  0  0  0  0  0  0  0  0  0  0  0
   -0.8623    6.5143    0.0000 C   0  0  0  0  0  0  0  0  0  0  0  0
   -0.8578    7.5194    0.0000 C   0  0  0  0  0  0  0  0  0  0  0  0
   -1.7319    8.0156    0.0000 C   0  0  0  0  0  0  0  0  0  0  0  0
   -1.7363    9.0155    0.0000 C   0  0  0  0  0  0  0  0  0  0  0  0
   -2.6017    7.5117    0.0000 C   0  0  0  0  0  0  0  0  0  0  0  0
   -2.5974    6.5117    0.0000 C   0  0  0  0  0  0  0  0  0  0  0  0
   -1.7321    6.0104    0.0000 C   0  0  0  0  0  0  0  0  0  0  0  0
   -1.7321    5.0104    0.0000 O   0  0  0  0  0  0  0  0  0  0  0  0
   -0.8660    4.5104    0.0000 C   0  0  0  0  0  0  0  0  0  0  0  0
   -0.8660    3.5104    0.0000 C   0  0  3  0  0  0  0  0  0  0  0  0
   -1.7321    3.0104    0.0000 O   0  0  0  0  0  0  0  0  0  0  0  0
   -0.0000    3.0104    0.0000 C   0  0  0  0  0  0  0  0  0  0  0  0
   -0.0000    2.0104    0.0000 N   0  0  0  0  0  0  0  0  0  0  0  0
   -0.8675    1.5027    0.0000 C   0  0  0  0  0  0  0  0  0  0  0  0
   -0.8675    0.4975    0.0000 C   0  0  0  0  0  0  0  0  0  0  0  0
    0.0000    0.0000    0.0000 C   0  0  0  0  0  0  0  0  0  0  0  0
    0.8675    0.4975    0.0000 C   0  0  0  0  0  0  0  0  0  0  0  0
    0.8675    1.5027    0.0000 C   0  0  0  0  0  0  0  0  0  0  0  0
  1  2  1  0  0  0  0
  2  3  2  0  0  0  0
  2  4  1  0  0  0  0
  4 10  2  0  0  0  0
  4  5  1  0  0  0  0
  5  6  2  0  0  0  0
  6  7  1  0  0  0  0
  6  8  1  0  0  0  0
  8  9  2  0  0  0  0
  9 10  1  0  0  0  0
 10 11  1  0  0  0  0
 11 12  1  0  0  0  0
 12 13  1  0  0  0  0
 13 14  1  0  0  0  0
 13 15  1  0  0  0  0
 15 16  1  0  0  0  0
 16 21  1  0  0  0  0
 16 17  1  0  0  0  0
 17 18  1  0  0  0  0
 18 19  1  0  0  0  0
 19 20  1  0  0  0  0
 20 21  1  0  0  0  0
M  END
> <ID>
372323

$$$$
372322
  -OEChem-05171416412D

 36 39  0     1  0  0  0  0  0999 V2000
   -0.8699    2.5113    0.0000 C   0  0  0  0  0  0  0  0  0  0  0  0
   -0.0046    3.0126    0.0000 C   0  0  0  0  0  0  0  0  0  0  0  0
   -0.0047    4.0127    0.0000 C   0  0  0  0  0  0  0  0  0  0  0  0
    0.8585    4.5177    0.0000 C   0  0  0  0  0  0  0  0  0  0  0  0
    1.7305    4.0177    0.0000 C   0  0  0  0  0  0  0  0  0  0  0  0
    1.7394    3.0126    0.0000 C   0  0  0  0  0  0  0  0  0  0  0  0
    0.8674    2.5126    0.0000 C   0  0  0  0  0  0  0  0  0  0  0  0
    0.8674    1.5126    0.0000 N   0  0  0  0  0  0  0  0  0  0  0  0
    0.0000    1.0051    0.0000 C   0  0  0  0  0  0  0  0  0  0  0  0
    0.0000    0.0000    0.0000 C   0  0  0  0  0  0  0  0  0  0  0  0
    0.8674   -0.4976    0.0000 N   0  0  0  0  0  0  0  0  0  0  0  0
    0.8674   -1.4976    0.0000 C   0  0  0  0  0  0  0  0  0  0  0  0
    1.7334   -1.9976    0.0000 C   0  0  3  0  0  0  0  0  0  0  0  0
    2.5995   -1.4976    0.0000 O   0  0  0  0  0  0  0  0  0  0  0  0
    1.7334   -2.9976    0.0000 C   0  0  0  0  0  0  0  0  0  0  0  0
    2.5995   -3.4976    0.0000 O   0  0  0  0  0  0  0  0  0  0  0  0
    2.5995   -4.4976    0.0000 C   0  0  0  0  0  0  0  0  0  0  0  0
    1.7341   -4.9989    0.0000 C   0  0  0  0  0  0  0  0  0  0  0  0
    1.7298   -5.9989    0.0000 C   0  0  0  0  0  0  0  0  0  0  0  0
    0.8623   -6.4964    0.0000 Cl  0  0  0  0  0  0  0  0  0  0  0  0
    2.5996   -6.5028    0.0000 C   0  0  0  0  0  0  0  0  0  0  0  0
    2.5952   -7.5027    0.0000 Cl  0  0  0  0  0  0  0  0  0  0  0  0
    3.4737   -6.0066    0.0000 C   0  0  0  0  0  0  0  0  0  0  0  0
    3.4692   -5.0015    0.0000 C   0  0  0  0  0  0  0  0  0  0  0  0
    4.3345   -4.5002    0.0000 C   0  0  0  0  0  0  0  0  0  0  0  0
    5.2013   -4.9989    0.0000 O   0  0  0  0  0  0  0  0  0  0  0  0
    4.3330   -3.5002    0.0000 C   0  0  0  0  0  0  0  0  0  0  0  0
    5.1983   -2.9989    0.0000 C   0  0  0  0  0  0  0  0  0  0  0  0
    5.1968   -1.9989    0.0000 C   0  0  0  0  0  0  0  0  0  0  0  0
    4.3240   -1.5001    0.0000 C   0  0  0  0  0  0  0  0  0  0  0  0
    4.3225   -0.5001    0.0000 C   0  0  0  0  0  0  0  0  0  0  0  0
    5.1849    0.0063    0.0000 C   0  0  0  0  0  0  0  0  0  0  0  0
    6.0576   -0.4925    0.0000 C   0  0  0  0  0  0  0  0  0  0  0  0
    6.0680   -1.4976    0.0000 C   0  0  0  0  0  0  0  0  0  0  0  0
    1.7348    0.0000    0.0000 C   0  0  0  0  0  0  0  0  0  0  0  0
    1.7348    1.0051    0.0000 C   0  0  0  0  0  0  0  0  0  0  0  0
  1  2  1  0  0  0  0
  2  7  2  0  0  0  0
  2  3  1  0  0  0  0
  3  4  2  0  0  0  0
  4  5  1  0  0  0  0
  5  6  2  0  0  0  0
  6  7  1  0  0  0  0
  7  8  1  0  0  0  0
  8 36  1  0  0  0  0
  8  9  1  0  0  0  0
  9 10  1  0  0  0  0
 10 11  1  0  0  0  0
 11 12  1  0  0  0  0
 12 13  1  0  0  0  0
 13 14  1  0  0  0  0
 13 15  1  0  0  0  0
 15 16  1  0  0  0  0
 16 17  1  0  0  0  0
 17 24  2  0  0  0  0
 17 18  1  0  0  0  0
 18 19  2  0  0  0  0
 19 20  1  0  0  0  0
 19 21  1  0  0  0  0
 21 22  1  0  0  0  0
 21 23  2  0  0  0  0
 23 24  1  0  0  0  0
 24 25  1  0  0  0  0
 25 26  2  0  0  0  0
 25 27  1  0  0  0  0
 27 28  1  0  0  0  0
 28 29  1  0  0  0  0
 29 34  2  0  0  0  0
 29 30  1  0  0  0  0
 30 31  2  0  0  0  0
 31 32  1  0  0  0  0
 32 33  2  0  0  0  0
 33 34  1  0  0  0  0
 11 35  1  0  0  0  0
 35 36  1  0  0  0  0
M  END
> <ID>
372322

$$$$
372318
  -OEChem-05171416412D

 35 38  0     1  0  0  0  0  0999 V2000
    4.3286    0.4925    0.0000 O   0  0  0  0  0  0  0  0  0  0  0  0
    4.3316    1.4925    0.0000 C   0  0  3  0  0  0  0  0  0  0  0  0
    3.4670    1.9950    0.0000 C   0  0  0  0  0  0  0  0  0  0  0  0
    2.5995    1.4976    0.0000 N   0  0  0  0  0  0  0  0  0  0  0  0
    1.7350    2.0001    0.0000 C   0  0  3  0  0  0  0  0  0  0  0  0
    0.8675    1.5027    0.0000 C   0  0  0  0  0  0  0  0  0  0  0  0
    0.8675    0.4975    0.0000 C   0  0  0  0  0  0  0  0  0  0  0  0
    0.0000    0.0000    0.0000 C   0  0  0  0  0  0  0  0  0  0  0  0
   -0.8675    0.4975    0.0000 C   0  0  0  0  0  0  0  0  0  0  0  0
   -0.8675    1.5027    0.0000 C   0  0  0  0  0  0  0  0  0  0  0  0
    0.0000    2.0104    0.0000 C   0  0  0  0  0  0  0  0  0  0  0  0
    1.7379    3.0001    0.0000 C   0  0  0  0  0  0  0  0  0  0  0  0
    0.8674    3.5027    0.0000 C   0  0  0  0  0  0  0  0  0  0  0  0
    0.8703    4.5028    0.0000 C   0  0  0  0  0  0  0  0  0  0  0  0
    1.7349    5.0053    0.0000 C   0  0  0  0  0  0  0  0  0  0  0  0
    2.6054    4.5027    0.0000 C   0  0  0  0  0  0  0  0  0  0  0  0
    2.6114    3.4976    0.0000 C   0  0  0  0  0  0  0  0  0  0  0  0
    5.1991    1.9899    0.0000 C   0  0  0  0  0  0  0  0  0  0  0  0
    6.0636    1.4874    0.0000 O   0  0  0  0  0  0  0  0  0  0  0  0
    6.9311    1.9848    0.0000 C   0  0  0  0  0  0  0  0  0  0  0  0
    6.9355    2.9848    0.0000 C   0  0  0  0  0  0  0  0  0  0  0  0
    7.8009    3.4861    0.0000 C   0  0  0  0  0  0  0  0  0  0  0  0
    8.6707    2.9822    0.0000 C   0  0  0  0  0  0  0  0  0  0  0  0
    8.6751    1.9770    0.0000 C   0  0  0  0  0  0  0  0  0  0  0  0
    7.8009    1.4809    0.0000 C   0  0  0  0  0  0  0  0  0  0  0  0
    7.7965    0.4809    0.0000 C   0  0  0  0  0  0  0  0  0  0  0  0
    6.9282   -0.0152    0.0000 O   0  0  0  0  0  0  0  0  0  0  0  0
    8.6602   -0.0229    0.0000 C   0  0  0  0  0  0  0  0  0  0  0  0
    8.6558   -1.0229    0.0000 C   0  0  0  0  0  0  0  0  0  0  0  0
    9.5196   -1.5268    0.0000 C   0  0  0  0  0  0  0  0  0  0  0  0
   10.3909   -1.0255    0.0000 C   0  0  0  0  0  0  0  0  0  0  0  0
   11.2547   -1.5293    0.0000 C   0  0  0  0  0  0  0  0  0  0  0  0
   11.2561   -2.5293    0.0000 C   0  0  0  0  0  0  0  0  0  0  0  0
   10.3848   -3.0306    0.0000 C   0  0  0  0  0  0  0  0  0  0  0  0
    9.5121   -2.5319    0.0000 C   0  0  0  0  0  0  0  0  0  0  0  0
  1  2  1  0  0  0  0
  2  3  1  0  0  0  0
  3  4  1  0  0  0  0
  4  5  1  0  0  0  0
  5  6  1  0  0  0  0
  6 11  1  0  0  0  0
  6  7  1  0  0  0  0
  7  8  1  0  0  0  0
  8  9  1  0  0  0  0
  9 10  1  0  0  0  0
 10 11  1  0  0  0  0
  5 12  1  0  0  0  0
 12 17  2  0  0  0  0
 12 13  1  0  0  0  0
 13 14  2  0  0  0  0
 14 15  1  0  0  0  0
 15 16  2  0  0  0  0
 16 17  1  0  0  0  0
  2 18  1  0  0  0  0
 18 19  1  0  0  0  0
 19 20  1  0  0  0  0
 20 25  2  0  0  0  0
 20 21  1  0  0  0  0
 21 22  2  0  0  0  0
 22 23  1  0  0  0  0
 23 24  2  0  0  0  0
 24 25  1  0  0  0  0
 25 26  1  0  0  0  0
 26 27  2  0  0  0  0
 26 28  1  0  0  0  0
 28 29  1  0  0  0  0
 29 30  1  0  0  0  0
 30 35  2  0  0  0  0
 30 31  1  0  0  0  0
 31 32  2  0  0  0  0
 32 33  1  0  0  0  0
 33 34  2  0  0  0  0
 34 35  1  0  0  0  0
M  END
> <ID>
372318

$$$$
372317
  -OEChem-05171416412D

 32 34  0     1  0  0  0  0  0999 V2000
    3.4583   -6.0025    0.0000 C   0  0  0  0  0  0  0  0  0  0  0  0
    3.4598   -5.0025    0.0000 C   0  0  0  0  0  0  0  0  0  0  0  0
    2.5945   -4.5013    0.0000 C   0  0  0  0  0  0  0  0  0  0  0  0
    4.3265   -4.5038    0.0000 C   0  0  3  0  0  0  0  0  0  0  0  0
    4.3280   -3.5038    0.0000 N   0  0  0  0  0  0  0  0  0  0  0  0
    3.4627   -3.0025    0.0000 C   0  0  0  0  0  0  0  0  0  0  0  0
    3.4641   -2.0025    0.0000 C   0  0  3  0  0  0  0  0  0  0  0  0
    4.3309   -1.5038    0.0000 O   0  0  0  0  0  0  0  0  0  0  0  0
    2.5988   -1.5013    0.0000 C   0  0  0  0  0  0  0  0  0  0  0  0
    2.6003   -0.5013    0.0000 O   0  0  0  0  0  0  0  0  0  0  0  0
    1.7350    0.0000    0.0000 C   0  0  0  0  0  0  0  0  0  0  0  0
    0.8675   -0.4975    0.0000 C   0  0  0  0  0  0  0  0  0  0  0  0
    0.0000    0.0000    0.0000 C   0  0  0  0  0  0  0  0  0  0  0  0
   -0.0000    1.0052    0.0000 C   0  0  0  0  0  0  0  0  0  0  0  0
    0.8675    1.5129    0.0000 C   0  0  0  0  0  0  0  0  0  0  0  0
    1.7350    1.0052    0.0000 C   0  0  0  0  0  0  0  0  0  0  0  0
    2.6025    1.5026    0.0000 C   0  0  0  0  0  0  0  0  0  0  0  0
    3.4670    1.0001    0.0000 O   0  0  0  0  0  0  0  0  0  0  0  0
    2.6054    2.5026    0.0000 C   0  0  0  0  0  0  0  0  0  0  0  0
    3.4729    3.0001    0.0000 C   0  0  0  0  0  0  0  0  0  0  0  0
    3.4759    4.0001    0.0000 C   0  0  0  0  0  0  0  0  0  0  0  0
    2.6054    4.5027    0.0000 C   0  0  0  0  0  0  0  0  0  0  0  0
    2.6083    5.5027    0.0000 C   0  0  0  0  0  0  0  0  0  0  0  0
    3.4729    6.0052    0.0000 C   0  0  0  0  0  0  0  0  0  0  0  0
    4.3434    5.5026    0.0000 C   0  0  0  0  0  0  0  0  0  0  0  0
    4.3493    4.4975    0.0000 C   0  0  0  0  0  0  0  0  0  0  0  0
    5.1918   -5.0050    0.0000 C   0  0  0  0  0  0  0  0  0  0  0  0
    6.0616   -4.5011    0.0000 C   0  0  0  0  0  0  0  0  0  0  0  0
    6.9270   -5.0023    0.0000 C   0  0  0  0  0  0  0  0  0  0  0  0
    6.9314   -6.0024    0.0000 C   0  0  0  0  0  0  0  0  0  0  0  0
    6.0616   -6.5063    0.0000 C   0  0  0  0  0  0  0  0  0  0  0  0
    5.1874   -6.0102    0.0000 C   0  0  0  0  0  0  0  0  0  0  0  0
  1  2  1  0  0  0  0
  2  3  1  0  0  0  0
  2  4  1  0  0  0  0
  4  5  1  0  0  0  0
  5  6  1  0  0  0  0
  6  7  1  0  0  0  0
  7  8  1  0  0  0  0
  7  9  1  0  0  0  0
  9 10  1  0  0  0  0
 10 11  1  0  0  0  0
 11 16  2  0  0  0  0
 11 12  1  0  0  0  0
 12 13  2  0  0  0  0
 13 14  1  0  0  0  0
 14 15  2  0  0  0  0
 15 16  1  0  0  0  0
 16 17  1  0  0  0  0
 17 18  2  0  0  0  0
 17 19  1  0  0  0  0
 19 20  1  0  0  0  0
 20 21  1  0  0  0  0
 21 26  2  0  0  0  0
 21 22  1  0  0  0  0
 22 23  2  0  0  0  0
 23 24  1  0  0  0  0
 24 25  2  0  0  0  0
 25 26  1  0  0  0  0
  4 27  1  0  0  0  0
 27 32  2  0  0  0  0
 27 28  1  0  0  0  0
 28 29  2  0  0  0  0
 29 30  1  0  0  0  0
 30 31  2  0  0  0  0
 31 32  1  0  0  0  0
M  END
> <ID>
372317

$$$$
244559
  -OEChem-05171416412D

 20 21  0     1  0  0  0  0  0999 V2000
    1.7271   -7.9988    0.0000 C   0  0  0  0  0  0  0  0  0  0  0  0
    2.5953   -7.5026    0.0000 C   0  0  0  0  0  0  0  0  0  0  0  0
    3.4591   -8.0065    0.0000 O   0  0  0  0  0  0  0  0  0  0  0  0
    2.5997   -6.5027    0.0000 C   0  0  0  0  0  0  0  0  0  0  0  0
    1.7299   -5.9988    0.0000 C   0  0  0  0  0  0  0  0  0  0  0  0
    1.7342   -4.9988    0.0000 C   0  0  0  0  0  0  0  0  0  0  0  0
    2.5996   -4.4975    0.0000 C   0  0  0  0  0  0  0  0  0  0  0  0
    2.5996   -3.4975    0.0000 O   0  0  0  0  0  0  0  0  0  0  0  0
    1.7335   -2.9975    0.0000 C   0  0  0  0  0  0  0  0  0  0  0  0
    1.7335   -1.9975    0.0000 C   0  0  3  0  0  0  0  0  0  0  0  0
    2.5996   -1.4975    0.0000 O   0  0  0  0  0  0  0  0  0  0  0  0
    0.8675   -1.4975    0.0000 C   0  0  0  0  0  0  0  0  0  0  0  0
    0.8675   -0.4975    0.0000 N   0  0  0  0  0  0  0  0  0  0  0  0
    0.0000    0.0000    0.0000 C   0  0  0  0  0  0  0  0  0  0  0  0
   -0.0000    1.0052    0.0000 C   0  0  0  0  0  0  0  0  0  0  0  0
    0.8675    1.5129    0.0000 O   0  0  0  0  0  0  0  0  0  0  0  0
    1.7350    1.0052    0.0000 C   0  0  0  0  0  0  0  0  0  0  0  0
    1.7350    0.0000    0.0000 C   0  0  0  0  0  0  0  0  0  0  0  0
    3.4694   -5.0014    0.0000 C   0  0  0  0  0  0  0  0  0  0  0  0
    3.4738   -6.0065    0.0000 C   0  0  0  0  0  0  0  0  0  0  0  0
  1  2  1  0  0  0  0
  2  3  2  0  0  0  0
  2  4  1  0  0  0  0
  4 20  2  0  0  0  0
  4  5  1  0  0  0  0
  5  6  2  0  0  0  0
  6  7  1  0  0  0  0
  7  8  1  0  0  0  0
  8  9  1  0  0  0  0
  9 10  1  0  0  0  0
 10 11  1  0  0  0  0
 10 12  1  0  0  0  0
 12 13  1  0  0  0  0
 13 18  1  0  0  0  0
 13 14  1  0  0  0  0
 14 15  1  0  0  0  0
 15 16  1  0  0  0  0
 16 17  1  0  0  0  0
 17 18  1  0  0  0  0
  7 19  2  0  0  0  0
 19 20  1  0  0  0  0
M  END
> <ID>
244559

$$$$
244560
  -OEChem-05171416412D

 27 29  0     1  0  0  0  0  0999 V2000
    0.0078    9.0139    0.0000 C   0  0  0  0  0  0  0  0  0  0  0  0
   -0.8604    8.5177    0.0000 C   0  0  0  0  0  0  0  0  0  0  0  0
   -1.7242    9.0216    0.0000 O   0  0  0  0  0  0  0  0  0  0  0  0
   -0.8648    7.5178    0.0000 C   0  0  0  0  0  0  0  0  0  0  0  0
    0.0050    7.0139    0.0000 C   0  0  0  0  0  0  0  0  0  0  0  0
    0.0007    6.0139    0.0000 C   0  0  0  0  0  0  0  0  0  0  0  0
   -0.8647    5.5126    0.0000 C   0  0  0  0  0  0  0  0  0  0  0  0
   -0.8647    4.5126    0.0000 O   0  0  0  0  0  0  0  0  0  0  0  0
    0.0014    4.0126    0.0000 C   0  0  0  0  0  0  0  0  0  0  0  0
    0.0014    3.0126    0.0000 C   0  0  3  0  0  0  0  0  0  0  0  0
   -0.8647    2.5126    0.0000 O   0  0  0  0  0  0  0  0  0  0  0  0
    0.8674    2.5126    0.0000 C   0  0  0  0  0  0  0  0  0  0  0  0
    0.8674    1.5126    0.0000 N   0  0  0  0  0  0  0  0  0  0  0  0
    0.0000    1.0051    0.0000 C   0  0  0  0  0  0  0  0  0  0  0  0
    0.0000    0.0000    0.0000 C   0  0  0  0  0  0  0  0  0  0  0  0
    0.8674   -0.4976    0.0000 N   0  0  0  0  0  0  0  0  0  0  0  0
    1.7348    0.0000    0.0000 C   0  0  0  0  0  0  0  0  0  0  0  0
    1.7348    1.0051    0.0000 C   0  0  0  0  0  0  0  0  0  0  0  0
    0.8674   -1.4976    0.0000 C   0  0  0  0  0  0  0  0  0  0  0  0
    1.7394   -1.9976    0.0000 C   0  0  0  0  0  0  0  0  0  0  0  0
    1.7395   -2.9977    0.0000 C   0  0  0  0  0  0  0  0  0  0  0  0
    0.8763   -3.5027    0.0000 C   0  0  0  0  0  0  0  0  0  0  0  0
    0.8807   -4.5027    0.0000 F   0  0  0  0  0  0  0  0  0  0  0  0
    0.0043   -3.0027    0.0000 C   0  0  0  0  0  0  0  0  0  0  0  0
   -0.0046   -1.9976    0.0000 C   0  0  0  0  0  0  0  0  0  0  0  0
   -1.7344    6.0165    0.0000 C   0  0  0  0  0  0  0  0  0  0  0  0
   -1.7389    7.0216    0.0000 C   0  0  0  0  0  0  0  0  0  0  0  0
  1  2  1  0  0  0  0
  2  3  2  0  0  0  0
  2  4  1  0  0  0  0
  4 27  2  0  0  0  0
  4  5  1  0  0  0  0
  5  6  2  0  0  0  0
  6  7  1  0  0  0  0
  7  8  1  0  0  0  0
  8  9  1  0  0  0  0
  9 10  1  0  0  0  0
 10 11  1  0  0  0  0
 10 12  1  0  0  0  0
 12 13  1  0  0  0  0
 13 18  1  0  0  0  0
 13 14  1  0  0  0  0
 14 15  1  0  0  0  0
 15 16  1  0  0  0  0
 16 17  1  0  0  0  0
 17 18  1  0  0  0  0
 16 19  1  0  0  0  0
 19 25  2  0  0  0  0
 19 20  1  0  0  0  0
 20 21  2  0  0  0  0
 21 22  1  0  0  0  0
 22 23  1  0  0  0  0
 22 24  2  0  0  0  0
 24 25  1  0  0  0  0
  7 26  2  0  0  0  0
 26 27  1  0  0  0  0
M  END
> <ID>
244560

$$$$
372308
  -OEChem-05171416412D

 35 38  0     1  0  0  0  0  0999 V2000
   -0.8647    2.5126    0.0000 O   0  0  0  0  0  0  0  0  0  0  0  0
    0.0014    3.0126    0.0000 C   0  0  3  0  0  0  0  0  0  0  0  0
    0.0014    4.0126    0.0000 C   0  0  0  0  0  0  0  0  0  0  0  0
   -0.8647    4.5126    0.0000 O   0  0  0  0  0  0  0  0  0  0  0  0
   -0.8647    5.5126    0.0000 C   0  0  0  0  0  0  0  0  0  0  0  0
   -1.7300    6.0139    0.0000 C   0  0  0  0  0  0  0  0  0  0  0  0
   -1.7343    7.0139    0.0000 C   0  0  0  0  0  0  0  0  0  0  0  0
   -0.8645    7.5178    0.0000 C   0  0  0  0  0  0  0  0  0  0  0  0
    0.0096    7.0216    0.0000 C   0  0  0  0  0  0  0  0  0  0  0  0
    0.0051    6.0165    0.0000 C   0  0  0  0  0  0  0  0  0  0  0  0
    0.8704    5.5152    0.0000 C   0  0  0  0  0  0  0  0  0  0  0  0
    0.8689    4.5152    0.0000 O   0  0  0  0  0  0  0  0  0  0  0  0
    1.7372    6.0139    0.0000 C   0  0  0  0  0  0  0  0  0  0  0  0
    2.6025    5.5126    0.0000 C   0  0  0  0  0  0  0  0  0  0  0  0
    3.4692    6.0113    0.0000 C   0  0  0  0  0  0  0  0  0  0  0  0
    3.4678    7.0165    0.0000 C   0  0  0  0  0  0  0  0  0  0  0  0
    4.3346    7.5152    0.0000 C   0  0  0  0  0  0  0  0  0  0  0  0
    5.2028    7.0190    0.0000 C   0  0  0  0  0  0  0  0  0  0  0  0
    5.2042    6.0138    0.0000 C   0  0  0  0  0  0  0  0  0  0  0  0
    4.3375    5.5048    0.0000 C   0  0  0  0  0  0  0  0  0  0  0  0
    0.8674    2.5126    0.0000 C   0  0  0  0  0  0  0  0  0  0  0  0
    0.8674    1.5126    0.0000 N   0  0  0  0  0  0  0  0  0  0  0  0
    0.0000    1.0051    0.0000 C   0  0  0  0  0  0  0  0  0  0  0  0
    0.0000    0.0000    0.0000 C   0  0  0  0  0  0  0  0  0  0  0  0
    0.8674   -0.4976    0.0000 N   0  0  0  0  0  0  0  0  0  0  0  0
    1.7348    0.0000    0.0000 C   0  0  0  0  0  0  0  0  0  0  0  0
    1.7348    1.0051    0.0000 C   0  0  0  0  0  0  0  0  0  0  0  0
    0.8674   -1.4976    0.0000 C   0  0  0  0  0  0  0  0  0  0  0  0
    0.0014   -1.9976    0.0000 O   0  0  0  0  0  0  0  0  0  0  0  0
    1.7334   -1.9976    0.0000 C   0  0  0  0  0  0  0  0  0  0  0  0
    2.6025   -1.4924    0.0000 C   0  0  0  0  0  0  0  0  0  0  0  0
    3.4685   -1.9924    0.0000 C   0  0  0  0  0  0  0  0  0  0  0  0
    3.4744   -2.9924    0.0000 C   0  0  0  0  0  0  0  0  0  0  0  0
    2.6054   -3.4976    0.0000 C   0  0  0  0  0  0  0  0  0  0  0  0
    1.7305   -3.0027    0.0000 C   0  0  0  0  0  0  0  0  0  0  0  0
  1  2  1  0  0  0  0
  2  3  1  0  0  0  0
  3  4  1  0  0  0  0
  4  5  1  0  0  0  0
  5 10  2  0  0  0  0
  5  6  1  0  0  0  0
  6  7  2  0  0  0  0
  7  8  1  0  0  0  0
  8  9  2  0  0  0  0
  9 10  1  0  0  0  0
 10 11  1  0  0  0  0
 11 12  2  0  0  0  0
 11 13  1  0  0  0  0
 13 14  1  0  0  0  0
 14 15  1  0  0  0  0
 15 20  2  0  0  0  0
 15 16  1  0  0  0  0
 16 17  2  0  0  0  0
 17 18  1  0  0  0  0
 18 19  2  0  0  0  0
 19 20  1  0  0  0  0
  2 21  1  0  0  0  0
 21 22  1  0  0  0  0
 22 27  1  0  0  0  0
 22 23  1  0  0  0  0
 23 24  1  0  0  0  0
 24 25  1  0  0  0  0
 25 26  1  0  0  0  0
 26 27  1  0  0  0  0
 25 28  1  0  0  0  0
 28 29  2  0  0  0  0
 28 30  1  0  0  0  0
 30 35  2  0  0  0  0
 30 31  1  0  0  0  0
 31 32  2  0  0  0  0
 32 33  1  0  0  0  0
 33 34  2  0  0  0  0
 34 35  1  0  0  0  0
M  END
> <ID>
372308

$$$$
243664
  -OEChem-05171416412D

 27 29  0     1  0  0  0  0  0999 V2000
    1.7304    7.0279    0.0000 C   0  0  0  0  0  0  0  0  0  0  0  0
    0.8615    7.5228    0.0000 C   0  0  0  0  0  0  0  0  0  0  0  0
    0.8556    8.5228    0.0000 O   0  0  0  0  0  0  0  0  0  0  0  0
   -0.0016    7.0177    0.0000 C   0  0  0  0  0  0  0  0  0  0  0  0
   -0.8736    7.5177    0.0000 C   0  0  0  0  0  0  0  0  0  0  0  0
   -1.7367    7.0127    0.0000 C   0  0  0  0  0  0  0  0  0  0  0  0
   -1.7367    6.0126    0.0000 C   0  0  0  0  0  0  0  0  0  0  0  0
   -0.8647    5.5126    0.0000 C   0  0  0  0  0  0  0  0  0  0  0  0
   -0.8647    4.5126    0.0000 O   0  0  0  0  0  0  0  0  0  0  0  0
    0.0014    4.0126    0.0000 C   0  0  0  0  0  0  0  0  0  0  0  0
    0.0014    3.0126    0.0000 C   0  0  3  0  0  0  0  0  0  0  0  0
   -0.8647    2.5126    0.0000 O   0  0  0  0  0  0  0  0  0  0  0  0
    0.8674    2.5126    0.0000 C   0  0  0  0  0  0  0  0  0  0  0  0
    0.8674    1.5126    0.0000 N   0  0  0  0  0  0  0  0  0  0  0  0
    0.0000    1.0051    0.0000 C   0  0  0  0  0  0  0  0  0  0  0  0
    0.0000    0.0000    0.0000 C   0  0  0  0  0  0  0  0  0  0  0  0
    0.8674   -0.4976    0.0000 N   0  0  0  0  0  0  0  0  0  0  0  0
    1.7348    0.0000    0.0000 C   0  0  0  0  0  0  0  0  0  0  0  0
    1.7348    1.0051    0.0000 C   0  0  0  0  0  0  0  0  0  0  0  0
    0.8674   -1.4976    0.0000 C   0  0  0  0  0  0  0  0  0  0  0  0
    1.7394   -1.9976    0.0000 C   0  0  0  0  0  0  0  0  0  0  0  0
    1.7395   -2.9977    0.0000 C   0  0  0  0  0  0  0  0  0  0  0  0
    0.8763   -3.5027    0.0000 C   0  0  0  0  0  0  0  0  0  0  0  0
    0.8807   -4.5027    0.0000 F   0  0  0  0  0  0  0  0  0  0  0  0
    0.0043   -3.0027    0.0000 C   0  0  0  0  0  0  0  0  0  0  0  0
   -0.0046   -1.9976    0.0000 C   0  0  0  0  0  0  0  0  0  0  0  0
    0.0073    6.0126    0.0000 C   0  0  0  0  0  0  0  0  0  0  0  0
  1  2  1  0  0  0  0
  2  3  2  0  0  0  0
  2  4  1  0  0  0  0
  4 27  2  0  0  0  0
  4  5  1  0  0  0  0
  5  6  2  0  0  0  0
  6  7  1  0  0  0  0
  7  8  2  0  0  0  0
  8  9  1  0  0  0  0
  9 10  1  0  0  0  0
 10 11  1  0  0  0  0
 11 12  1  0  0  0  0
 11 13  1  0  0  0  0
 13 14  1  0  0  0  0
 14 19  1  0  0  0  0
 14 15  1  0  0  0  0
 15 16  1  0  0  0  0
 16 17  1  0  0  0  0
 17 18  1  0  0  0  0
 18 19  1  0  0  0  0
 17 20  1  0  0  0  0
 20 26  2  0  0  0  0
 20 21  1  0  0  0  0
 21 22  2  0  0  0  0
 22 23  1  0  0  0  0
 23 24  1  0  0  0  0
 23 25  2  0  0  0  0
 25 26  1  0  0  0  0
  8 27  1  0  0  0  0
M  END
> <ID>
243664

$$$$
244482
  -OEChem-05171416412D

 20 21  0     1  0  0  0  0  0999 V2000
    0.8630    7.5257    0.0000 C   0  0  0  0  0  0  0  0  0  0  0  0
   -0.0059    8.0206    0.0000 C   0  0  0  0  0  0  0  0  0  0  0  0
   -0.0118    9.0206    0.0000 O   0  0  0  0  0  0  0  0  0  0  0  0
   -0.8690    7.5155    0.0000 C   0  0  0  0  0  0  0  0  0  0  0  0
   -1.7410    8.0155    0.0000 C   0  0  0  0  0  0  0  0  0  0  0  0
   -2.6041    7.5105    0.0000 C   0  0  0  0  0  0  0  0  0  0  0  0
   -2.6041    6.5104    0.0000 C   0  0  0  0  0  0  0  0  0  0  0  0
   -1.7321    6.0104    0.0000 C   0  0  0  0  0  0  0  0  0  0  0  0
   -1.7321    5.0104    0.0000 O   0  0  0  0  0  0  0  0  0  0  0  0
   -0.8660    4.5104    0.0000 C   0  0  0  0  0  0  0  0  0  0  0  0
   -0.8660    3.5104    0.0000 C   0  0  3  0  0  0  0  0  0  0  0  0
   -1.7321    3.0104    0.0000 O   0  0  0  0  0  0  0  0  0  0  0  0
   -0.0000    3.0104    0.0000 C   0  0  0  0  0  0  0  0  0  0  0  0
   -0.0000    2.0104    0.0000 N   0  0  0  0  0  0  0  0  0  0  0  0
   -0.8675    1.5027    0.0000 C   0  0  0  0  0  0  0  0  0  0  0  0
   -0.8675    0.4975    0.0000 C   0  0  0  0  0  0  0  0  0  0  0  0
    0.0000    0.0000    0.0000 C   0  0  0  0  0  0  0  0  0  0  0  0
    0.8675    0.4975    0.0000 C   0  0  0  0  0  0  0  0  0  0  0  0
    0.8675    1.5027    0.0000 C   0  0  0  0  0  0  0  0  0  0  0  0
   -0.8601    6.5104    0.0000 C   0  0  0  0  0  0  0  0  0  0  0  0
  1  2  1  0  0  0  0
  2  3  2  0  0  0  0
  2  4  1  0  0  0  0
  4 20  2  0  0  0  0
  4  5  1  0  0  0  0
  5  6  2  0  0  0  0
  6  7  1  0  0  0  0
  7  8  2  0  0  0  0
  8  9  1  0  0  0  0
  9 10  1  0  0  0  0
 10 11  1  0  0  0  0
 11 12  1  0  0  0  0
 11 13  1  0  0  0  0
 13 14  1  0  0  0  0
 14 19  1  0  0  0  0
 14 15  1  0  0  0  0
 15 16  1  0  0  0  0
 16 17  1  0  0  0  0
 17 18  1  0  0  0  0
 18 19  1  0  0  0  0
  8 20  1  0  0  0  0
M  END
> <ID>
244482

$$$$
244485
  -OEChem-05171416412D

 38 42  0     1  0  0  0  0  0999 V2000
   -1.7321    3.0104    0.0000 O   0  0  0  0  0  0  0  0  0  0  0  0
   -0.8660    3.5104    0.0000 C   0  0  3  0  0  0  0  0  0  0  0  0
   -0.8660    4.5104    0.0000 C   0  0  0  0  0  0  0  0  0  0  0  0
   -1.7321    5.0104    0.0000 O   0  0  0  0  0  0  0  0  0  0  0  0
   -1.7321    6.0104    0.0000 C   0  0  0  0  0  0  0  0  0  0  0  0
   -2.5974    6.5117    0.0000 C   0  0  0  0  0  0  0  0  0  0  0  0
   -2.6017    7.5117    0.0000 C   0  0  0  0  0  0  0  0  0  0  0  0
   -1.7319    8.0156    0.0000 C   0  0  0  0  0  0  0  0  0  0  0  0
   -0.8578    7.5194    0.0000 C   0  0  0  0  0  0  0  0  0  0  0  0
   -0.8623    6.5143    0.0000 C   0  0  0  0  0  0  0  0  0  0  0  0
    0.0030    6.0130    0.0000 C   0  0  0  0  0  0  0  0  0  0  0  0
    0.0015    5.0130    0.0000 O   0  0  0  0  0  0  0  0  0  0  0  0
    0.8698    6.5117    0.0000 C   0  0  0  0  0  0  0  0  0  0  0  0
    1.7351    6.0104    0.0000 C   0  0  0  0  0  0  0  0  0  0  0  0
    2.6018    6.5091    0.0000 C   0  0  0  0  0  0  0  0  0  0  0  0
    2.6068    7.5167    0.0000 C   0  0  0  0  0  0  0  0  0  0  0  0
    3.4792    8.0171    0.0000 C   0  0  0  0  0  0  0  0  0  0  0  0
    4.3466    7.5097    0.0000 C   0  0  0  0  0  0  0  0  0  0  0  0
    4.3437    6.5097    0.0000 C   0  0  0  0  0  0  0  0  0  0  0  0
    5.2073    6.0022    0.0000 C   0  0  0  0  0  0  0  0  0  0  0  0
    5.2060    5.0017    0.0000 C   0  0  0  0  0  0  0  0  0  0  0  0
    4.3329    4.5025    0.0000 C   0  0  0  0  0  0  0  0  0  0  0  0
    3.4613    5.0038    0.0000 C   0  0  0  0  0  0  0  0  0  0  0  0
    3.4713    6.0093    0.0000 C   0  0  0  0  0  0  0  0  0  0  0  0
   -0.0000    3.0104    0.0000 C   0  0  0  0  0  0  0  0  0  0  0  0
   -0.0000    2.0104    0.0000 N   0  0  0  0  0  0  0  0  0  0  0  0
   -0.8675    1.5027    0.0000 C   0  0  0  0  0  0  0  0  0  0  0  0
   -0.8675    0.4975    0.0000 C   0  0  0  0  0  0  0  0  0  0  0  0
    0.0000    0.0000    0.0000 C   0  0  0  0  0  0  0  0  0  0  0  0
    0.6420   -0.7667    0.0000 O   0  0  0  0  0  0  0  0  0  0  0  0
    0.8675    0.4975    0.0000 C   0  0  0  0  0  0  0  0  0  0  0  0
    0.8675    1.5027    0.0000 C   0  0  0  0  0  0  0  0  0  0  0  0
   -0.6420   -0.7667    0.0000 C   0  0  0  0  0  0  0  0  0  0  0  0
   -0.2946   -1.7099    0.0000 C   0  0  0  0  0  0  0  0  0  0  0  0
   -0.9366   -2.4766    0.0000 C   0  0  0  0  0  0  0  0  0  0  0  0
   -1.9226   -2.3097    0.0000 C   0  0  0  0  0  0  0  0  0  0  0  0
   -2.2701   -1.3665    0.0000 C   0  0  0  0  0  0  0  0  0  0  0  0
   -1.6316   -0.5902    0.0000 C   0  0  0  0  0  0  0  0  0  0  0  0
  1  2  1  0  0  0  0
  2  3  1  0  0  0  0
  3  4  1  0  0  0  0
  4  5  1  0  0  0  0
  5 10  2  0  0  0  0
  5  6  1  0  0  0  0
  6  7  2  0  0  0  0
  7  8  1  0  0  0  0
  8  9  2  0  0  0  0
  9 10  1  0  0  0  0
 10 11  1  0  0  0  0
 11 12  2  0  0  0  0
 11 13  1  0  0  0  0
 13 14  1  0  0  0  0
 14 15  1  0  0  0  0
 15 24  2  0  0  0  0
 15 16  1  0  0  0  0
 16 17  2  0  0  0  0
 17 18  1  0  0  0  0
 18 19  2  0  0  0  0
 19 24  1  0  0  0  0
 19 20  1  0  0  0  0
 20 21  2  0  0  0  0
 21 22  1  0  0  0  0
 22 23  2  0  0  0  0
 23 24  1  0  0  0  0
  2 25  1  0  0  0  0
 25 26  1  0  0  0  0
 26 32  1  0  0  0  0
 26 27  1  0  0  0  0
 27 28  1  0  0  0  0
 28 29  1  0  0  0  0
 29 30  1  0  0  0  0
 29 31  1  0  0  0  0
 31 32  1  0  0  0  0
 29 33  1  0  0  0  0
 33 38  2  0  0  0  0
 33 34  1  0  0  0  0
 34 35  2  0  0  0  0
 35 36  1  0  0  0  0
 36 37  2  0  0  0  0
 37 38  1  0  0  0  0
M  END
> <ID>
244485

$$$$
243757
  -OEChem-05171416412D

 28 30  0     1  0  0  0  0  0999 V2000
   -4.3331    4.5078    0.0000 C   0  0  0  0  0  0  0  0  0  0  0  0
   -3.4678    5.0091    0.0000 C   0  0  0  0  0  0  0  0  0  0  0  0
   -3.4693    6.0091    0.0000 C   0  0  0  0  0  0  0  0  0  0  0  0
   -4.3361    6.5078    0.0000 O   0  0  0  0  0  0  0  0  0  0  0  0
   -2.6041    6.5104    0.0000 C   0  0  0  0  0  0  0  0  0  0  0  0
   -2.6041    7.5105    0.0000 C   0  0  0  0  0  0  0  0  0  0  0  0
   -1.7410    8.0155    0.0000 C   0  0  0  0  0  0  0  0  0  0  0  0
   -0.8690    7.5155    0.0000 C   0  0  0  0  0  0  0  0  0  0  0  0
   -0.8601    6.5104    0.0000 C   0  0  0  0  0  0  0  0  0  0  0  0
   -1.7321    6.0104    0.0000 C   0  0  0  0  0  0  0  0  0  0  0  0
   -1.7321    5.0104    0.0000 O   0  0  0  0  0  0  0  0  0  0  0  0
   -0.8660    4.5104    0.0000 C   0  0  0  0  0  0  0  0  0  0  0  0
   -0.8660    3.5104    0.0000 C   0  0  3  0  0  0  0  0  0  0  0  0
   -1.7321    3.0104    0.0000 O   0  0  0  0  0  0  0  0  0  0  0  0
   -0.0000    3.0104    0.0000 C   0  0  0  0  0  0  0  0  0  0  0  0
   -0.0000    2.0104    0.0000 N   0  0  0  0  0  0  0  0  0  0  0  0
   -0.8675    1.5027    0.0000 C   0  0  0  0  0  0  0  0  0  0  0  0
   -0.8675    0.4975    0.0000 C   0  0  0  0  0  0  0  0  0  0  0  0
    0.0000    0.0000    0.0000 C   0  0  0  0  0  0  0  0  0  0  0  0
    0.6420   -0.7667    0.0000 O   0  0  0  0  0  0  0  0  0  0  0  0
    0.8675    0.4975    0.0000 C   0  0  0  0  0  0  0  0  0  0  0  0
    0.8675    1.5027    0.0000 C   0  0  0  0  0  0  0  0  0  0  0  0
   -0.6420   -0.7667    0.0000 C   0  0  0  0  0  0  0  0  0  0  0  0
   -0.2946   -1.7099    0.0000 C   0  0  0  0  0  0  0  0  0  0  0  0
   -0.9366   -2.4766    0.0000 C   0  0  0  0  0  0  0  0  0  0  0  0
   -1.9226   -2.3097    0.0000 C   0  0  0  0  0  0  0  0  0  0  0  0
   -2.2701   -1.3665    0.0000 C   0  0  0  0  0  0  0  0  0  0  0  0
   -1.6316   -0.5902    0.0000 C   0  0  0  0  0  0  0  0  0  0  0  0
  1  2  1  0  0  0  0
  2  3  1  0  0  0  0
  3  4  2  0  0  0  0
  3  5  1  0  0  0  0
  5 10  2  0  0  0  0
  5  6  1  0  0  0  0
  6  7  2  0  0  0  0
  7  8  1  0  0  0  0
  8  9  2  0  0  0  0
  9 10  1  0  0  0  0
 10 11  1  0  0  0  0
 11 12  1  0  0  0  0
 12 13  1  0  0  0  0
 13 14  1  0  0  0  0
 13 15  1  0  0  0  0
 15 16  1  0  0  0  0
 16 22  1  0  0  0  0
 16 17  1  0  0  0  0
 17 18  1  0  0  0  0
 18 19  1  0  0  0  0
 19 20  1  0  0  0  0
 19 21  1  0  0  0  0
 21 22  1  0  0  0  0
 19 23  1  0  0  0  0
 23 28  2  0  0  0  0
 23 24  1  0  0  0  0
 24 25  2  0  0  0  0
 25 26  1  0  0  0  0
 26 27  2  0  0  0  0
 27 28  1  0  0  0  0
M  END
> <ID>
243757

$$$$
244521
  -OEChem-05171416412D

 32 34  0     1  0  0  0  0  0999 V2000
   -4.3597    7.4983    0.0000 C   0  0  0  0  0  0  0  0  0  0  0  0
   -3.4916    7.0019    0.0000 C   0  0  0  0  0  0  0  0  0  0  0  0
   -2.6276    7.5055    0.0000 C   0  0  0  0  0  0  0  0  0  0  0  0
   -3.4874    6.0019    0.0000 N   0  0  0  0  0  0  0  0  0  0  0  0
   -2.6193    5.5056    0.0000 C   0  0  0  0  0  0  0  0  0  0  0  0
   -1.7554    6.0092    0.0000 C   0  0  3  0  0  0  0  0  0  0  0  0
   -1.7595    7.0092    0.0000 O   0  0  0  0  0  0  0  0  0  0  0  0
   -0.8873    5.5128    0.0000 C   0  0  0  0  0  0  0  0  0  0  0  0
   -0.0233    6.0164    0.0000 O   0  0  0  0  0  0  0  0  0  0  0  0
    0.8448    5.5200    0.0000 C   0  0  0  0  0  0  0  0  0  0  0  0
    1.7095    6.0224    0.0000 C   0  0  0  0  0  0  0  0  0  0  0  0
    2.5798    5.5298    0.0000 C   0  0  0  0  0  0  0  0  0  0  0  0
    2.5854    4.5246    0.0000 C   0  0  0  0  0  0  0  0  0  0  0  0
    1.7208    4.0120    0.0000 C   0  0  0  0  0  0  0  0  0  0  0  0
    0.8504    4.5148    0.0000 C   0  0  0  0  0  0  0  0  0  0  0  0
   -0.0143    4.0125    0.0000 C   0  0  0  0  0  0  0  0  0  0  0  0
   -0.8816    4.5102    0.0000 O   0  0  0  0  0  0  0  0  0  0  0  0
   -0.0116    3.0125    0.0000 C   0  0  0  0  0  0  0  0  0  0  0  0
   -0.8763    2.5102    0.0000 C   0  0  0  0  0  0  0  0  0  0  0  0
   -0.8736    1.5102    0.0000 C   0  0  0  0  0  0  0  0  0  0  0  0
   -0.0013    1.0057    0.0000 C   0  0  0  0  0  0  0  0  0  0  0  0
    0.0000    0.0000    0.0000 C   0  0  0  0  0  0  0  0  0  0  0  0
   -0.8710   -0.5011    0.0000 C   0  0  0  0  0  0  0  0  0  0  0  0
   -1.7377   -0.0022    0.0000 C   0  0  0  0  0  0  0  0  0  0  0  0
   -2.6069   -0.5000    0.0000 C   0  0  0  0  0  0  0  0  0  0  0  0
   -3.4748   -0.0022    0.0000 C   0  0  0  0  0  0  0  0  0  0  0  0
   -3.4748    1.0035    0.0000 C   0  0  0  0  0  0  0  0  0  0  0  0
   -2.6069    1.5113    0.0000 C   0  0  0  0  0  0  0  0  0  0  0  0
   -1.7390    1.0035    0.0000 C   0  0  0  0  0  0  0  0  0  0  0  0
   -4.3513    5.4983    0.0000 C   0  0  0  0  0  0  0  0  0  0  0  0
   -4.3472    4.4983    0.0000 C   0  0  0  0  0  0  0  0  0  0  0  0
   -5.2194    5.9947    0.0000 C   0  0  0  0  0  0  0  0  0  0  0  0
  1  2  1  0  0  0  0
  2  3  1  0  0  0  0
  2  4  1  0  0  0  0
  4  5  1  0  0  0  0
  5  6  1  0  0  0  0
  6  7  1  0  0  0  0
  6  8  1  0  0  0  0
  8  9  1  0  0  0  0
  9 10  1  0  0  0  0
 10 15  2  0  0  0  0
 10 11  1  0  0  0  0
 11 12  2  0  0  0  0
 12 13  1  0  0  0  0
 13 14  2  0  0  0  0
 14 15  1  0  0  0  0
 15 16  1  0  0  0  0
 16 17  2  0  0  0  0
 16 18  1  0  0  0  0
 18 19  1  0  0  0  0
 19 20  1  0  0  0  0
 20 29  2  0  0  0  0
 20 21  1  0  0  0  0
 21 22  2  0  0  0  0
 22 23  1  0  0  0  0
 23 24  2  0  0  0  0
 24 29  1  0  0  0  0
 24 25  1  0  0  0  0
 25 26  2  0  0  0  0
 26 27  1  0  0  0  0
 27 28  2  0  0  0  0
 28 29  1  0  0  0  0
  4 30  1  0  0  0  0
 30 31  1  0  0  0  0
 30 32  1  0  0  0  0
M  END
> <ID>
244521

$$$$
244518
  -OEChem-05171416412D

 31 34  0     1  0  0  0  0  0999 V2000
    2.5996   -1.4975    0.0000 O   0  0  0  0  0  0  0  0  0  0  0  0
    1.7335   -1.9975    0.0000 C   0  0  3  0  0  0  0  0  0  0  0  0
    1.7335   -2.9975    0.0000 C   0  0  0  0  0  0  0  0  0  0  0  0
    2.5996   -3.4975    0.0000 O   0  0  0  0  0  0  0  0  0  0  0  0
    2.5996   -4.4975    0.0000 C   0  0  0  0  0  0  0  0  0  0  0  0
    3.4649   -4.9988    0.0000 C   0  0  0  0  0  0  0  0  0  0  0  0
    3.4692   -5.9988    0.0000 C   0  0  0  0  0  0  0  0  0  0  0  0
    2.5994   -6.5027    0.0000 C   0  0  0  0  0  0  0  0  0  0  0  0
    1.7253   -6.0065    0.0000 C   0  0  0  0  0  0  0  0  0  0  0  0
    1.7298   -5.0014    0.0000 C   0  0  0  0  0  0  0  0  0  0  0  0
    0.8645   -4.5001    0.0000 C   0  0  0  0  0  0  0  0  0  0  0  0
    0.8660   -3.5001    0.0000 O   0  0  0  0  0  0  0  0  0  0  0  0
   -0.0023   -4.9988    0.0000 C   0  0  0  0  0  0  0  0  0  0  0  0
   -0.8676   -4.4975    0.0000 C   0  0  0  0  0  0  0  0  0  0  0  0
   -1.7343   -4.9962    0.0000 C   0  0  0  0  0  0  0  0  0  0  0  0
   -1.7393   -6.0038    0.0000 C   0  0  0  0  0  0  0  0  0  0  0  0
   -2.6117   -6.5042    0.0000 C   0  0  0  0  0  0  0  0  0  0  0  0
   -3.4791   -5.9968    0.0000 C   0  0  0  0  0  0  0  0  0  0  0  0
   -3.4762   -4.9968    0.0000 C   0  0  0  0  0  0  0  0  0  0  0  0
   -4.3398   -4.4893    0.0000 C   0  0  0  0  0  0  0  0  0  0  0  0
   -4.3385   -3.4888    0.0000 C   0  0  0  0  0  0  0  0  0  0  0  0
   -3.4654   -2.9896    0.0000 C   0  0  0  0  0  0  0  0  0  0  0  0
   -2.5938   -3.4909    0.0000 C   0  0  0  0  0  0  0  0  0  0  0  0
   -2.6038   -4.4964    0.0000 C   0  0  0  0  0  0  0  0  0  0  0  0
    0.8675   -1.4975    0.0000 C   0  0  0  0  0  0  0  0  0  0  0  0
    0.8675   -0.4975    0.0000 N   0  0  0  0  0  0  0  0  0  0  0  0
    0.0000    0.0000    0.0000 C   0  0  0  0  0  0  0  0  0  0  0  0
   -0.0000    1.0052    0.0000 C   0  0  0  0  0  0  0  0  0  0  0  0
    0.8675    1.5129    0.0000 O   0  0  0  0  0  0  0  0  0  0  0  0
    1.7350    1.0052    0.0000 C   0  0  0  0  0  0  0  0  0  0  0  0
    1.7350    0.0000    0.0000 C   0  0  0  0  0  0  0  0  0  0  0  0
  1  2  1  0  0  0  0
  2  3  1  0  0  0  0
  3  4  1  0  0  0  0
  4  5  1  0  0  0  0
  5 10  2  0  0  0  0
  5  6  1  0  0  0  0
  6  7  2  0  0  0  0
  7  8  1  0  0  0  0
  8  9  2  0  0  0  0
  9 10  1  0  0  0  0
 10 11  1  0  0  0  0
 11 12  2  0  0  0  0
 11 13  1  0  0  0  0
 13 14  1  0  0  0  0
 14 15  1  0  0  0  0
 15 24  2  0  0  0  0
 15 16  1  0  0  0  0
 16 17  2  0  0  0  0
 17 18  1  0  0  0  0
 18 19  2  0  0  0  0
 19 24  1  0  0  0  0
 19 20  1  0  0  0  0
 20 21  2  0  0  0  0
 21 22  1  0  0  0  0
 22 23  2  0  0  0  0
 23 24  1  0  0  0  0
  2 25  1  0  0  0  0
 25 26  1  0  0  0  0
 26 31  1  0  0  0  0
 26 27  1  0  0  0  0
 27 28  1  0  0  0  0
 28 29  1  0  0  0  0
 29 30  1  0  0  0  0
 30 31  1  0  0  0  0
M  END
> <ID>
244518

$$$$
372295
  -OEChem-05171416412D

 33 35  0     1  0  0  0  0  0999 V2000
    6.9268   -3.0075    0.0000 C   0  0  0  0  0  0  0  0  0  0  0  0
    6.9282   -2.0075    0.0000 C   0  0  0  0  0  0  0  0  0  0  0  0
    6.0629   -1.5063    0.0000 C   0  0  0  0  0  0  0  0  0  0  0  0
    6.0644   -0.5063    0.0000 N   0  0  0  0  0  0  0  0  0  0  0  0
    5.1991   -0.0050    0.0000 C   0  0  0  0  0  0  0  0  0  0  0  0
    4.3323   -0.5038    0.0000 C   0  0  3  0  0  0  0  0  0  0  0  0
    4.3309   -1.5038    0.0000 O   0  0  0  0  0  0  0  0  0  0  0  0
    3.4670   -0.0025    0.0000 C   0  0  0  0  0  0  0  0  0  0  0  0
    2.6003   -0.5013    0.0000 O   0  0  0  0  0  0  0  0  0  0  0  0
    1.7350    0.0000    0.0000 C   0  0  0  0  0  0  0  0  0  0  0  0
    0.8675   -0.4975    0.0000 C   0  0  0  0  0  0  0  0  0  0  0  0
    0.0000    0.0000    0.0000 C   0  0  0  0  0  0  0  0  0  0  0  0
   -0.0000    1.0052    0.0000 C   0  0  0  0  0  0  0  0  0  0  0  0
    0.8675    1.5129    0.0000 C   0  0  0  0  0  0  0  0  0  0  0  0
    1.7350    1.0052    0.0000 C   0  0  0  0  0  0  0  0  0  0  0  0
    2.6025    1.5026    0.0000 C   0  0  0  0  0  0  0  0  0  0  0  0
    3.4670    1.0001    0.0000 O   0  0  0  0  0  0  0  0  0  0  0  0
    2.6054    2.5026    0.0000 C   0  0  0  0  0  0  0  0  0  0  0  0
    3.4729    3.0001    0.0000 C   0  0  0  0  0  0  0  0  0  0  0  0
    3.4759    4.0001    0.0000 C   0  0  0  0  0  0  0  0  0  0  0  0
    2.6054    4.5027    0.0000 C   0  0  0  0  0  0  0  0  0  0  0  0
    2.6083    5.5027    0.0000 C   0  0  0  0  0  0  0  0  0  0  0  0
    3.4729    6.0052    0.0000 C   0  0  0  0  0  0  0  0  0  0  0  0
    4.3434    5.5026    0.0000 C   0  0  0  0  0  0  0  0  0  0  0  0
    4.3493    4.4975    0.0000 C   0  0  0  0  0  0  0  0  0  0  0  0
    6.9311   -0.0075    0.0000 C   0  0  0  0  0  0  0  0  0  0  0  0
    7.7964   -0.5088    0.0000 O   0  0  0  0  0  0  0  0  0  0  0  0
    6.9326    0.9925    0.0000 C   0  0  0  0  0  0  0  0  0  0  0  0
    6.0613    1.4938    0.0000 C   0  0  0  0  0  0  0  0  0  0  0  0
    6.0627    2.4938    0.0000 C   0  0  0  0  0  0  0  0  0  0  0  0
    6.9266    2.9976    0.0000 C   0  0  0  0  0  0  0  0  0  0  0  0
    7.7978    2.4963    0.0000 C   0  0  0  0  0  0  0  0  0  0  0  0
    7.8053    1.4912    0.0000 C   0  0  0  0  0  0  0  0  0  0  0  0
  1  2  1  0  0  0  0
  2  3  1  0  0  0  0
  3  4  1  0  0  0  0
  4  5  1  0  0  0  0
  5  6  1  0  0  0  0
  6  7  1  0  0  0  0
  6  8  1  0  0  0  0
  8  9  1  0  0  0  0
  9 10  1  0  0  0  0
 10 15  2  0  0  0  0
 10 11  1  0  0  0  0
 11 12  2  0  0  0  0
 12 13  1  0  0  0  0
 13 14  2  0  0  0  0
 14 15  1  0  0  0  0
 15 16  1  0  0  0  0
 16 17  2  0  0  0  0
 16 18  1  0  0  0  0
 18 19  1  0  0  0  0
 19 20  1  0  0  0  0
 20 25  2  0  0  0  0
 20 21  1  0  0  0  0
 21 22  2  0  0  0  0
 22 23  1  0  0  0  0
 23 24  2  0  0  0  0
 24 25  1  0  0  0  0
  4 26  1  0  0  0  0
 26 27  2  0  0  0  0
 26 28  1  0  0  0  0
 28 33  2  0  0  0  0
 28 29  1  0  0  0  0
 29 30  2  0  0  0  0
 30 31  1  0  0  0  0
 31 32  2  0  0  0  0
 32 33  1  0  0  0  0
M  END
> <ID>
372295

$$$$
372373
  -OEChem-05171416412D

 34 37  0     0  0  0  0  0  0999 V2000
    0.8717    5.5177    0.0000 F   0  0  0  0  0  0  0  0  0  0  0  0
    0.8673    4.5178    0.0000 C   0  0  0  0  0  0  0  0  0  0  0  0
    1.7371    4.0139    0.0000 C   0  0  0  0  0  0  0  0  0  0  0  0
    1.7327    3.0139    0.0000 C   0  0  0  0  0  0  0  0  0  0  0  0
    0.8674    2.5126    0.0000 C   0  0  0  0  0  0  0  0  0  0  0  0
   -0.0024    3.0165    0.0000 C   0  0  0  0  0  0  0  0  0  0  0  0
   -0.0069    4.0216    0.0000 C   0  0  0  0  0  0  0  0  0  0  0  0
    0.8674    1.5126    0.0000 N   0  0  0  0  0  0  0  0  0  0  0  0
    0.0000    1.0051    0.0000 C   0  0  0  0  0  0  0  0  0  0  0  0
    0.0000    0.0000    0.0000 C   0  0  0  0  0  0  0  0  0  0  0  0
    0.8674   -0.4976    0.0000 N   0  0  0  0  0  0  0  0  0  0  0  0
    0.8674   -1.4976    0.0000 C   0  0  0  0  0  0  0  0  0  0  0  0
    1.7334   -1.9976    0.0000 C   0  0  0  0  0  0  0  0  0  0  0  0
    1.7334   -2.9976    0.0000 C   0  0  0  0  0  0  0  0  0  0  0  0
    2.5995   -3.4976    0.0000 C   0  0  0  0  0  0  0  0  0  0  0  0
    2.5995   -4.4976    0.0000 O   0  0  0  0  0  0  0  0  0  0  0  0
    3.4655   -4.9976    0.0000 C   0  0  0  0  0  0  0  0  0  0  0  0
    4.3323   -4.4988    0.0000 C   0  0  0  0  0  0  0  0  0  0  0  0
    5.2005   -4.9951    0.0000 C   0  0  0  0  0  0  0  0  0  0  0  0
    5.2019   -6.0003    0.0000 C   0  0  0  0  0  0  0  0  0  0  0  0
    4.3352   -6.5092    0.0000 C   0  0  0  0  0  0  0  0  0  0  0  0
    3.4669   -6.0028    0.0000 C   0  0  0  0  0  0  0  0  0  0  0  0
    2.6002   -6.5015    0.0000 C   0  0  0  0  0  0  0  0  0  0  0  0
    1.7349   -6.0002    0.0000 O   0  0  0  0  0  0  0  0  0  0  0  0
    2.5987   -7.5015    0.0000 C   0  0  0  0  0  0  0  0  0  0  0  0
    1.7319   -8.0002    0.0000 C   0  0  0  0  0  0  0  0  0  0  0  0
    1.7304   -9.0002    0.0000 C   0  0  0  0  0  0  0  0  0  0  0  0
    2.6016   -9.5015    0.0000 C   0  0  0  0  0  0  0  0  0  0  0  0
    2.6002  -10.5016    0.0000 C   0  0  0  0  0  0  0  0  0  0  0  0
    1.7363  -11.0053    0.0000 C   0  0  0  0  0  0  0  0  0  0  0  0
    0.8651  -10.5040    0.0000 C   0  0  0  0  0  0  0  0  0  0  0  0
    0.8577   -9.4989    0.0000 C   0  0  0  0  0  0  0  0  0  0  0  0
    1.7348    0.0000    0.0000 C   0  0  0  0  0  0  0  0  0  0  0  0
    1.7348    1.0051    0.0000 C   0  0  0  0  0  0  0  0  0  0  0  0
  1  2  1  0  0  0  0
  2  7  2  0  0  0  0
  2  3  1  0  0  0  0
  3  4  2  0  0  0  0
  4  5  1  0  0  0  0
  5  6  2  0  0  0  0
  6  7  1  0  0  0  0
  5  8  1  0  0  0  0
  8 34  1  0  0  0  0
  8  9  1  0  0  0  0
  9 10  1  0  0  0  0
 10 11  1  0  0  0  0
 11 12  1  0  0  0  0
 12 13  1  0  0  0  0
 13 14  1  0  0  0  0
 14 15  1  0  0  0  0
 15 16  1  0  0  0  0
 16 17  1  0  0  0  0
 17 22  2  0  0  0  0
 17 18  1  0  0  0  0
 18 19  2  0  0  0  0
 19 20  1  0  0  0  0
 20 21  2  0  0  0  0
 21 22  1  0  0  0  0
 22 23  1  0  0  0  0
 23 24  2  0  0  0  0
 23 25  1  0  0  0  0
 25 26  1  0  0  0  0
 26 27  1  0  0  0  0
 27 32  2  0  0  0  0
 27 28  1  0  0  0  0
 28 29  2  0  0  0  0
 29 30  1  0  0  0  0
 30 31  2  0  0  0  0
 31 32  1  0  0  0  0
 11 33  1  0  0  0  0
 33 34  1  0  0  0  0
M  END
> <ID>
372373

$$$$
372372
  -OEChem-05171416412D

 27 29  0     0  0  0  0  0  0999 V2000
    0.0044   -6.0001    0.0000 O   0  0  0  0  0  0  0  0  0  0  0  0
   -0.8608   -6.5014    0.0000 C   0  0  0  0  0  0  0  0  0  0  0  0
   -0.8593   -7.5014    0.0000 C   0  0  0  0  0  0  0  0  0  0  0  0
    0.0074   -8.0001    0.0000 C   0  0  0  0  0  0  0  0  0  0  0  0
    0.0089   -9.0001    0.0000 C   0  0  0  0  0  0  0  0  0  0  0  0
    0.8817   -9.4988    0.0000 C   0  0  0  0  0  0  0  0  0  0  0  0
    0.8832  -10.4988    0.0000 C   0  0  0  0  0  0  0  0  0  0  0  0
    0.0209  -11.0052    0.0000 C   0  0  0  0  0  0  0  0  0  0  0  0
   -0.8519  -10.5065    0.0000 C   0  0  0  0  0  0  0  0  0  0  0  0
   -0.8623   -9.5014    0.0000 C   0  0  0  0  0  0  0  0  0  0  0  0
   -1.7276   -6.0027    0.0000 C   0  0  0  0  0  0  0  0  0  0  0  0
   -2.5936   -6.5028    0.0000 C   0  0  0  0  0  0  0  0  0  0  0  0
   -3.4626   -6.0078    0.0000 C   0  0  0  0  0  0  0  0  0  0  0  0
   -3.4656   -5.0026    0.0000 C   0  0  0  0  0  0  0  0  0  0  0  0
   -2.5996   -4.4924    0.0000 C   0  0  0  0  0  0  0  0  0  0  0  0
   -1.7306   -4.9975    0.0000 C   0  0  0  0  0  0  0  0  0  0  0  0
   -0.8646   -4.4975    0.0000 O   0  0  0  0  0  0  0  0  0  0  0  0
   -0.8646   -3.4975    0.0000 C   0  0  0  0  0  0  0  0  0  0  0  0
    0.0015   -2.9975    0.0000 C   0  0  0  0  0  0  0  0  0  0  0  0
    0.0015   -1.9975    0.0000 C   0  0  0  0  0  0  0  0  0  0  0  0
    0.8675   -1.4975    0.0000 C   0  0  0  0  0  0  0  0  0  0  0  0
    0.8675   -0.4975    0.0000 N   0  0  0  0  0  0  0  0  0  0  0  0
    0.0000    0.0000    0.0000 C   0  0  0  0  0  0  0  0  0  0  0  0
   -0.0000    1.0052    0.0000 C   0  0  0  0  0  0  0  0  0  0  0  0
    0.8675    1.5129    0.0000 O   0  0  0  0  0  0  0  0  0  0  0  0
    1.7350    1.0052    0.0000 C   0  0  0  0  0  0  0  0  0  0  0  0
    1.7350    0.0000    0.0000 C   0  0  0  0  0  0  0  0  0  0  0  0
  1  2  2  0  0  0  0
  2  3  1  0  0  0  0
  3  4  1  0  0  0  0
  4  5  1  0  0  0  0
  5 10  2  0  0  0  0
  5  6  1  0  0  0  0
  6  7  2  0  0  0  0
  7  8  1  0  0  0  0
  8  9  2  0  0  0  0
  9 10  1  0  0  0  0
  2 11  1  0  0  0  0
 11 16  2  0  0  0  0
 11 12  1  0  0  0  0
 12 13  2  0  0  0  0
 13 14  1  0  0  0  0
 14 15  2  0  0  0  0
 15 16  1  0  0  0  0
 16 17  1  0  0  0  0
 17 18  1  0  0  0  0
 18 19  1  0  0  0  0
 19 20  1  0  0  0  0
 20 21  1  0  0  0  0
 21 22  1  0  0  0  0
 22 27  1  0  0  0  0
 22 23  1  0  0  0  0
 23 24  1  0  0  0  0
 24 25  1  0  0  0  0
 25 26  1  0  0  0  0
 26 27  1  0  0  0  0
M  END
> <ID>
372372

$$$$
372367
  -OEChem-05171416412D

 33 35  0     1  0  0  0  0  0999 V2000
    6.9268   -3.0075    0.0000 C   0  0  0  0  0  0  0  0  0  0  0  0
    6.9282   -2.0075    0.0000 C   0  0  0  0  0  0  0  0  0  0  0  0
    6.0629   -1.5063    0.0000 C   0  0  0  0  0  0  0  0  0  0  0  0
    5.1962   -2.0050    0.0000 O   0  0  0  0  0  0  0  0  0  0  0  0
    6.0644   -0.5063    0.0000 N   0  0  0  0  0  0  0  0  0  0  0  0
    5.1991   -0.0050    0.0000 C   0  0  0  0  0  0  0  0  0  0  0  0
    4.3323   -0.5038    0.0000 C   0  0  3  0  0  0  0  0  0  0  0  0
    4.3309   -1.5038    0.0000 O   0  0  0  0  0  0  0  0  0  0  0  0
    3.4670   -0.0025    0.0000 C   0  0  0  0  0  0  0  0  0  0  0  0
    2.6003   -0.5013    0.0000 O   0  0  0  0  0  0  0  0  0  0  0  0
    1.7350    0.0000    0.0000 C   0  0  0  0  0  0  0  0  0  0  0  0
    0.8675   -0.4975    0.0000 C   0  0  0  0  0  0  0  0  0  0  0  0
    0.0000    0.0000    0.0000 C   0  0  0  0  0  0  0  0  0  0  0  0
   -0.0000    1.0052    0.0000 C   0  0  0  0  0  0  0  0  0  0  0  0
    0.8675    1.5129    0.0000 C   0  0  0  0  0  0  0  0  0  0  0  0
    1.7350    1.0052    0.0000 C   0  0  0  0  0  0  0  0  0  0  0  0
    2.6025    1.5026    0.0000 C   0  0  0  0  0  0  0  0  0  0  0  0
    3.4670    1.0001    0.0000 O   0  0  0  0  0  0  0  0  0  0  0  0
    2.6054    2.5026    0.0000 C   0  0  0  0  0  0  0  0  0  0  0  0
    3.4729    3.0001    0.0000 C   0  0  0  0  0  0  0  0  0  0  0  0
    3.4759    4.0001    0.0000 C   0  0  0  0  0  0  0  0  0  0  0  0
    2.6054    4.5027    0.0000 C   0  0  0  0  0  0  0  0  0  0  0  0
    2.6083    5.5027    0.0000 C   0  0  0  0  0  0  0  0  0  0  0  0
    3.4729    6.0052    0.0000 C   0  0  0  0  0  0  0  0  0  0  0  0
    4.3434    5.5026    0.0000 C   0  0  0  0  0  0  0  0  0  0  0  0
    4.3493    4.4975    0.0000 C   0  0  0  0  0  0  0  0  0  0  0  0
    6.9311   -0.0075    0.0000 C   0  0  0  0  0  0  0  0  0  0  0  0
    6.9326    0.9925    0.0000 C   0  0  0  0  0  0  0  0  0  0  0  0
    6.0613    1.4938    0.0000 C   0  0  0  0  0  0  0  0  0  0  0  0
    6.0627    2.4938    0.0000 C   0  0  0  0  0  0  0  0  0  0  0  0
    6.9266    2.9976    0.0000 C   0  0  0  0  0  0  0  0  0  0  0  0
    7.7978    2.4963    0.0000 C   0  0  0  0  0  0  0  0  0  0  0  0
    7.8053    1.4912    0.0000 C   0  0  0  0  0  0  0  0  0  0  0  0
  1  2  1  0  0  0  0
  2  3  1  0  0  0  0
  3  4  2  0  0  0  0
  3  5  1  0  0  0  0
  5  6  1  0  0  0  0
  6  7  1  0  0  0  0
  7  8  1  0  0  0  0
  7  9  1  0  0  0  0
  9 10  1  0  0  0  0
 10 11  1  0  0  0  0
 11 16  2  0  0  0  0
 11 12  1  0  0  0  0
 12 13  2  0  0  0  0
 13 14  1  0  0  0  0
 14 15  2  0  0  0  0
 15 16  1  0  0  0  0
 16 17  1  0  0  0  0
 17 18  2  0  0  0  0
 17 19  1  0  0  0  0
 19 20  1  0  0  0  0
 20 21  1  0  0  0  0
 21 26  2  0  0  0  0
 21 22  1  0  0  0  0
 22 23  2  0  0  0  0
 23 24  1  0  0  0  0
 24 25  2  0  0  0  0
 25 26  1  0  0  0  0
  5 27  1  0  0  0  0
 27 28  1  0  0  0  0
 28 33  2  0  0  0  0
 28 29  1  0  0  0  0
 29 30  2  0  0  0  0
 30 31  1  0  0  0  0
 31 32  2  0  0  0  0
 32 33  1  0  0  0  0
M  END
> <ID>
372367

$$$$
372366
  -OEChem-05171416412D

 31 33  0     1  0  0  0  0  0999 V2000
    3.4700    2.9950    0.0000 O   0  0  0  0  0  0  0  0  0  0  0  0
    2.6054    3.4976    0.0000 C   0  0  3  0  0  0  0  0  0  0  0  0
    1.7379    3.0001    0.0000 C   0  0  0  0  0  0  0  0  0  0  0  0
    1.7350    2.0001    0.0000 N   0  0  0  0  0  0  0  0  0  0  0  0
    0.8675    1.5027    0.0000 C   0  0  0  0  0  0  0  0  0  0  0  0
    0.8675    0.4975    0.0000 C   0  0  0  0  0  0  0  0  0  0  0  0
    0.0000    0.0000    0.0000 C   0  0  0  0  0  0  0  0  0  0  0  0
   -0.8675    0.4975    0.0000 C   0  0  0  0  0  0  0  0  0  0  0  0
   -0.8675    1.5027    0.0000 C   0  0  0  0  0  0  0  0  0  0  0  0
    0.0000    2.0104    0.0000 C   0  0  0  0  0  0  0  0  0  0  0  0
   -1.7328   -0.0038    0.0000 N   0  3  0  0  0  0  0  0  0  0  0  0
   -2.5995    0.4950    0.0000 O   0  0  0  0  0  0  0  0  0  0  0  0
   -1.7313   -1.0038    0.0000 O   0  5  0  0  0  0  0  0  0  0  0  0
    2.6084    4.4976    0.0000 C   0  0  0  0  0  0  0  0  0  0  0  0
    3.4759    4.9950    0.0000 O   0  0  0  0  0  0  0  0  0  0  0  0
    3.4788    5.9950    0.0000 C   0  0  0  0  0  0  0  0  0  0  0  0
    2.6150    6.4988    0.0000 C   0  0  0  0  0  0  0  0  0  0  0  0
    2.6136    7.4989    0.0000 C   0  0  0  0  0  0  0  0  0  0  0  0
    3.4849    8.0002    0.0000 C   0  0  0  0  0  0  0  0  0  0  0  0
    4.3576    7.5014    0.0000 C   0  0  0  0  0  0  0  0  0  0  0  0
    4.3501    6.4963    0.0000 C   0  0  0  0  0  0  0  0  0  0  0  0
    5.2139    5.9925    0.0000 C   0  0  0  0  0  0  0  0  0  0  0  0
    5.2095    4.9925    0.0000 O   0  0  0  0  0  0  0  0  0  0  0  0
    6.0822    6.4886    0.0000 C   0  0  0  0  0  0  0  0  0  0  0  0
    6.9459    5.9848    0.0000 C   0  0  0  0  0  0  0  0  0  0  0  0
    7.8142    6.4809    0.0000 C   0  0  0  0  0  0  0  0  0  0  0  0
    7.8157    7.4861    0.0000 C   0  0  0  0  0  0  0  0  0  0  0  0
    8.6839    7.9823    0.0000 C   0  0  0  0  0  0  0  0  0  0  0  0
    9.5507    7.4835    0.0000 C   0  0  0  0  0  0  0  0  0  0  0  0
    9.5492    6.4783    0.0000 C   0  0  0  0  0  0  0  0  0  0  0  0
    8.6809    5.9719    0.0000 C   0  0  0  0  0  0  0  0  0  0  0  0
  1  2  1  0  0  0  0
  2  3  1  0  0  0  0
  3  4  1  0  0  0  0
  4  5  1  0  0  0  0
  5 10  2  0  0  0  0
  5  6  1  0  0  0  0
  6  7  2  0  0  0  0
  7  8  1  0  0  0  0
  8  9  2  0  0  0  0
  9 10  1  0  0  0  0
  8 11  1  0  0  0  0
 11 12  2  0  0  0  0
 11 13  1  0  0  0  0
  2 14  1  0  0  0  0
 14 15  1  0  0  0  0
 15 16  1  0  0  0  0
 16 21  2  0  0  0  0
 16 17  1  0  0  0  0
 17 18  2  0  0  0  0
 18 19  1  0  0  0  0
 19 20  2  0  0  0  0
 20 21  1  0  0  0  0
 21 22  1  0  0  0  0
 22 23  2  0  0  0  0
 22 24  1  0  0  0  0
 24 25  1  0  0  0  0
 25 26  1  0  0  0  0
 26 31  2  0  0  0  0
 26 27  1  0  0  0  0
 27 28  2  0  0  0  0
 28 29  1  0  0  0  0
 29 30  2  0  0  0  0
 30 31  1  0  0  0  0
M  CHG  2  11   1  13  -1
M  END
> <ID>
372366

$$$$
372360
  -OEChem-05171416412D

 32 34  0     1  0  0  0  0  0999 V2000
    3.4700    2.9950    0.0000 O   0  0  0  0  0  0  0  0  0  0  0  0
    2.6054    3.4976    0.0000 C   0  0  3  0  0  0  0  0  0  0  0  0
    1.7379    3.0001    0.0000 C   0  0  0  0  0  0  0  0  0  0  0  0
    1.7350    2.0001    0.0000 N   0  0  0  0  0  0  0  0  0  0  0  0
    0.8675    1.5027    0.0000 C   0  0  0  0  0  0  0  0  0  0  0  0
    0.8675    0.4975    0.0000 C   0  0  0  0  0  0  0  0  0  0  0  0
    0.0000    0.0000    0.0000 C   0  0  0  0  0  0  0  0  0  0  0  0
   -0.8675    0.4975    0.0000 C   0  0  0  0  0  0  0  0  0  0  0  0
   -0.8675    1.5027    0.0000 C   0  0  0  0  0  0  0  0  0  0  0  0
    0.0000    2.0104    0.0000 C   0  0  0  0  0  0  0  0  0  0  0  0
   -1.7328   -0.0038    0.0000 C   0  0  0  0  0  0  0  0  0  0  0  0
   -1.2315   -0.8691    0.0000 F   0  0  0  0  0  0  0  0  0  0  0  0
   -2.2341    0.8615    0.0000 F   0  0  0  0  0  0  0  0  0  0  0  0
   -2.5981   -0.5050    0.0000 F   0  0  0  0  0  0  0  0  0  0  0  0
    2.6084    4.4976    0.0000 C   0  0  0  0  0  0  0  0  0  0  0  0
    3.4759    4.9950    0.0000 O   0  0  0  0  0  0  0  0  0  0  0  0
    3.4788    5.9950    0.0000 C   0  0  0  0  0  0  0  0  0  0  0  0
    2.6150    6.4988    0.0000 C   0  0  0  0  0  0  0  0  0  0  0  0
    2.6136    7.4989    0.0000 C   0  0  0  0  0  0  0  0  0  0  0  0
    3.4849    8.0002    0.0000 C   0  0  0  0  0  0  0  0  0  0  0  0
    4.3576    7.5014    0.0000 C   0  0  0  0  0  0  0  0  0  0  0  0
    4.3501    6.4963    0.0000 C   0  0  0  0  0  0  0  0  0  0  0  0
    5.2139    5.9925    0.0000 C   0  0  0  0  0  0  0  0  0  0  0  0
    5.2095    4.9925    0.0000 O   0  0  0  0  0  0  0  0  0  0  0  0
    6.0822    6.4886    0.0000 C   0  0  0  0  0  0  0  0  0  0  0  0
    6.9459    5.9848    0.0000 C   0  0  0  0  0  0  0  0  0  0  0  0
    7.8142    6.4809    0.0000 C   0  0  0  0  0  0  0  0  0  0  0  0
    7.8157    7.4861    0.0000 C   0  0  0  0  0  0  0  0  0  0  0  0
    8.6839    7.9823    0.0000 C   0  0  0  0  0  0  0  0  0  0  0  0
    9.5507    7.4835    0.0000 C   0  0  0  0  0  0  0  0  0  0  0  0
    9.5492    6.4783    0.0000 C   0  0  0  0  0  0  0  0  0  0  0  0
    8.6809    5.9719    0.0000 C   0  0  0  0  0  0  0  0  0  0  0  0
  1  2  1  0  0  0  0
  2  3  1  0  0  0  0
  3  4  1  0  0  0  0
  4  5  1  0  0  0  0
  5 10  2  0  0  0  0
  5  6  1  0  0  0  0
  6  7  2  0  0  0  0
  7  8  1  0  0  0  0
  8  9  2  0  0  0  0
  9 10  1  0  0  0  0
  8 11  1  0  0  0  0
 11 12  1  0  0  0  0
 11 13  1  0  0  0  0
 11 14  1  0  0  0  0
  2 15  1  0  0  0  0
 15 16  1  0  0  0  0
 16 17  1  0  0  0  0
 17 22  2  0  0  0  0
 17 18  1  0  0  0  0
 18 19  2  0  0  0  0
 19 20  1  0  0  0  0
 20 21  2  0  0  0  0
 21 22  1  0  0  0  0
 22 23  1  0  0  0  0
 23 24  2  0  0  0  0
 23 25  1  0  0  0  0
 25 26  1  0  0  0  0
 26 27  1  0  0  0  0
 27 32  2  0  0  0  0
 27 28  1  0  0  0  0
 28 29  2  0  0  0  0
 29 30  1  0  0  0  0
 30 31  2  0  0  0  0
 31 32  1  0  0  0  0
M  END
> <ID>
372360

$$$$
372359
  -OEChem-05171416412D

 35 38  0     1  0  0  0  0  0999 V2000
   -0.8689    8.5177    0.0000 C   0  0  0  0  0  0  0  0  0  0  0  0
   -0.8645    7.5178    0.0000 C   0  0  0  0  0  0  0  0  0  0  0  0
   -1.7343    7.0139    0.0000 C   0  0  0  0  0  0  0  0  0  0  0  0
   -1.7300    6.0139    0.0000 C   0  0  0  0  0  0  0  0  0  0  0  0
   -0.8647    5.5126    0.0000 C   0  0  0  0  0  0  0  0  0  0  0  0
   -0.8647    4.5126    0.0000 O   0  0  0  0  0  0  0  0  0  0  0  0
    0.0014    4.0126    0.0000 C   0  0  0  0  0  0  0  0  0  0  0  0
    0.0014    3.0126    0.0000 C   0  0  3  0  0  0  0  0  0  0  0  0
   -0.8647    2.5126    0.0000 O   0  0  0  0  0  0  0  0  0  0  0  0
    0.8674    2.5126    0.0000 C   0  0  0  0  0  0  0  0  0  0  0  0
    0.8674    1.5126    0.0000 N   0  0  0  0  0  0  0  0  0  0  0  0
    0.0000    1.0051    0.0000 C   0  0  0  0  0  0  0  0  0  0  0  0
    0.0000    0.0000    0.0000 C   0  0  0  0  0  0  0  0  0  0  0  0
    0.8674   -0.4976    0.0000 N   0  0  0  0  0  0  0  0  0  0  0  0
    1.7348    0.0000    0.0000 C   0  0  0  0  0  0  0  0  0  0  0  0
    1.7348    1.0051    0.0000 C   0  0  0  0  0  0  0  0  0  0  0  0
    0.8674   -1.4976    0.0000 C   0  0  0  0  0  0  0  0  0  0  0  0
    1.7327   -1.9989    0.0000 C   0  0  0  0  0  0  0  0  0  0  0  0
    1.7371   -2.9989    0.0000 C   0  0  0  0  0  0  0  0  0  0  0  0
    0.8673   -3.5028    0.0000 C   0  0  0  0  0  0  0  0  0  0  0  0
   -0.0069   -3.0066    0.0000 C   0  0  0  0  0  0  0  0  0  0  0  0
   -0.0024   -2.0015    0.0000 C   0  0  0  0  0  0  0  0  0  0  0  0
   -0.8677   -1.5002    0.0000 C   0  0  0  0  0  0  0  0  0  0  0  0
    0.0051    6.0165    0.0000 C   0  0  0  0  0  0  0  0  0  0  0  0
    0.0096    7.0216    0.0000 C   0  0  0  0  0  0  0  0  0  0  0  0
    0.8704    5.5152    0.0000 C   0  0  0  0  0  0  0  0  0  0  0  0
    0.8689    4.5152    0.0000 O   0  0  0  0  0  0  0  0  0  0  0  0
    1.7372    6.0139    0.0000 C   0  0  0  0  0  0  0  0  0  0  0  0
    2.6025    5.5126    0.0000 C   0  0  0  0  0  0  0  0  0  0  0  0
    3.4692    6.0113    0.0000 C   0  0  0  0  0  0  0  0  0  0  0  0
    3.4678    7.0165    0.0000 C   0  0  0  0  0  0  0  0  0  0  0  0
    4.3346    7.5152    0.0000 C   0  0  0  0  0  0  0  0  0  0  0  0
    5.2028    7.0190    0.0000 C   0  0  0  0  0  0  0  0  0  0  0  0
    5.2042    6.0138    0.0000 C   0  0  0  0  0  0  0  0  0  0  0  0
    4.3375    5.5048    0.0000 C   0  0  0  0  0  0  0  0  0  0  0  0
  1  2  1  0  0  0  0
  2 25  2  0  0  0  0
  2  3  1  0  0  0  0
  3  4  2  0  0  0  0
  4  5  1  0  0  0  0
  5  6  1  0  0  0  0
  6  7  1  0  0  0  0
  7  8  1  0  0  0  0
  8  9  1  0  0  0  0
  8 10  1  0  0  0  0
 10 11  1  0  0  0  0
 11 16  1  0  0  0  0
 11 12  1  0  0  0  0
 12 13  1  0  0  0  0
 13 14  1  0  0  0  0
 14 15  1  0  0  0  0
 15 16  1  0  0  0  0
 14 17  1  0  0  0  0
 17 22  2  0  0  0  0
 17 18  1  0  0  0  0
 18 19  2  0  0  0  0
 19 20  1  0  0  0  0
 20 21  2  0  0  0  0
 21 22  1  0  0  0  0
 22 23  1  0  0  0  0
  5 24  2  0  0  0  0
 24 25  1  0  0  0  0
 24 26  1  0  0  0  0
 26 27  2  0  0  0  0
 26 28  1  0  0  0  0
 28 29  1  0  0  0  0
 29 30  1  0  0  0  0
 30 35  2  0  0  0  0
 30 31  1  0  0  0  0
 31 32  2  0  0  0  0
 32 33  1  0  0  0  0
 33 34  2  0  0  0  0
 34 35  1  0  0  0  0
M  END
> <ID>
372359

$$$$
372349
  -OEChem-05171416412D

 36 39  0     1  0  0  0  0  0999 V2000
   -0.0051    9.0216    0.0000 C   0  0  0  0  0  0  0  0  0  0  0  0
   -0.8689    8.5177    0.0000 O   0  0  0  0  0  0  0  0  0  0  0  0
   -0.8645    7.5178    0.0000 C   0  0  0  0  0  0  0  0  0  0  0  0
   -1.7343    7.0139    0.0000 C   0  0  0  0  0  0  0  0  0  0  0  0
   -1.7300    6.0139    0.0000 C   0  0  0  0  0  0  0  0  0  0  0  0
   -0.8647    5.5126    0.0000 C   0  0  0  0  0  0  0  0  0  0  0  0
   -0.8647    4.5126    0.0000 O   0  0  0  0  0  0  0  0  0  0  0  0
    0.0014    4.0126    0.0000 C   0  0  0  0  0  0  0  0  0  0  0  0
    0.0014    3.0126    0.0000 C   0  0  3  0  0  0  0  0  0  0  0  0
   -0.8647    2.5126    0.0000 O   0  0  0  0  0  0  0  0  0  0  0  0
    0.8674    2.5126    0.0000 C   0  0  0  0  0  0  0  0  0  0  0  0
    0.8674    1.5126    0.0000 N   0  0  0  0  0  0  0  0  0  0  0  0
    0.0000    1.0051    0.0000 C   0  0  0  0  0  0  0  0  0  0  0  0
    0.0000    0.0000    0.0000 C   0  0  0  0  0  0  0  0  0  0  0  0
    0.8674   -0.4976    0.0000 N   0  0  0  0  0  0  0  0  0  0  0  0
    1.7348    0.0000    0.0000 C   0  0  0  0  0  0  0  0  0  0  0  0
    1.7348    1.0051    0.0000 C   0  0  0  0  0  0  0  0  0  0  0  0
    0.8674   -1.4976    0.0000 C   0  0  0  0  0  0  0  0  0  0  0  0
    1.7327   -1.9989    0.0000 C   0  0  0  0  0  0  0  0  0  0  0  0
    1.7371   -2.9989    0.0000 C   0  0  0  0  0  0  0  0  0  0  0  0
    0.8673   -3.5028    0.0000 C   0  0  0  0  0  0  0  0  0  0  0  0
   -0.0069   -3.0066    0.0000 C   0  0  0  0  0  0  0  0  0  0  0  0
   -0.0024   -2.0015    0.0000 C   0  0  0  0  0  0  0  0  0  0  0  0
   -0.8677   -1.5002    0.0000 C   0  0  0  0  0  0  0  0  0  0  0  0
    0.0051    6.0165    0.0000 C   0  0  0  0  0  0  0  0  0  0  0  0
    0.0096    7.0216    0.0000 C   0  0  0  0  0  0  0  0  0  0  0  0
    0.8704    5.5152    0.0000 C   0  0  0  0  0  0  0  0  0  0  0  0
    0.8689    4.5152    0.0000 O   0  0  0  0  0  0  0  0  0  0  0  0
    1.7372    6.0139    0.0000 C   0  0  0  0  0  0  0  0  0  0  0  0
    2.6025    5.5126    0.0000 C   0  0  0  0  0  0  0  0  0  0  0  0
    3.4692    6.0113    0.0000 C   0  0  0  0  0  0  0  0  0  0  0  0
    3.4678    7.0165    0.0000 C   0  0  0  0  0  0  0  0  0  0  0  0
    4.3346    7.5152    0.0000 C   0  0  0  0  0  0  0  0  0  0  0  0
    5.2028    7.0190    0.0000 C   0  0  0  0  0  0  0  0  0  0  0  0
    5.2042    6.0138    0.0000 C   0  0  0  0  0  0  0  0  0  0  0  0
    4.3375    5.5048    0.0000 C   0  0  0  0  0  0  0  0  0  0  0  0
  1  2  1  0  0  0  0
  2  3  1  0  0  0  0
  3 26  2  0  0  0  0
  3  4  1  0  0  0  0
  4  5  2  0  0  0  0
  5  6  1  0  0  0  0
  6  7  1  0  0  0  0
  7  8  1  0  0  0  0
  8  9  1  0  0  0  0
  9 10  1  0  0  0  0
  9 11  1  0  0  0  0
 11 12  1  0  0  0  0
 12 17  1  0  0  0  0
 12 13  1  0  0  0  0
 13 14  1  0  0  0  0
 14 15  1  0  0  0  0
 15 16  1  0  0  0  0
 16 17  1  0  0  0  0
 15 18  1  0  0  0  0
 18 23  2  0  0  0  0
 18 19  1  0  0  0  0
 19 20  2  0  0  0  0
 20 21  1  0  0  0  0
 21 22  2  0  0  0  0
 22 23  1  0  0  0  0
 23 24  1  0  0  0  0
  6 25  2  0  0  0  0
 25 26  1  0  0  0  0
 25 27  1  0  0  0  0
 27 28  2  0  0  0  0
 27 29  1  0  0  0  0
 29 30  1  0  0  0  0
 30 31  1  0  0  0  0
 31 36  2  0  0  0  0
 31 32  1  0  0  0  0
 32 33  2  0  0  0  0
 33 34  1  0  0  0  0
 34 35  2  0  0  0  0
 35 36  1  0  0  0  0
M  END
> <ID>
372349

$$$$
372348
  -OEChem-05171416412D

 35 38  0     1  0  0  0  0  0999 V2000
   -0.8699    2.5113    0.0000 C   0  0  0  0  0  0  0  0  0  0  0  0
   -0.0046    3.0126    0.0000 C   0  0  0  0  0  0  0  0  0  0  0  0
   -0.0047    4.0127    0.0000 C   0  0  0  0  0  0  0  0  0  0  0  0
    0.8585    4.5177    0.0000 C   0  0  0  0  0  0  0  0  0  0  0  0
    1.7305    4.0177    0.0000 C   0  0  0  0  0  0  0  0  0  0  0  0
    1.7394    3.0126    0.0000 C   0  0  0  0  0  0  0  0  0  0  0  0
    0.8674    2.5126    0.0000 C   0  0  0  0  0  0  0  0  0  0  0  0
    0.8674    1.5126    0.0000 N   0  0  0  0  0  0  0  0  0  0  0  0
    0.0000    1.0051    0.0000 C   0  0  0  0  0  0  0  0  0  0  0  0
    0.0000    0.0000    0.0000 C   0  0  0  0  0  0  0  0  0  0  0  0
    0.8674   -0.4976    0.0000 N   0  0  0  0  0  0  0  0  0  0  0  0
    0.8674   -1.4976    0.0000 C   0  0  0  0  0  0  0  0  0  0  0  0
    1.7334   -1.9976    0.0000 C   0  0  3  0  0  0  0  0  0  0  0  0
    2.5995   -1.4976    0.0000 O   0  0  0  0  0  0  0  0  0  0  0  0
    1.7334   -2.9976    0.0000 C   0  0  0  0  0  0  0  0  0  0  0  0
    2.5995   -3.4976    0.0000 O   0  0  0  0  0  0  0  0  0  0  0  0
    2.5995   -4.4976    0.0000 C   0  0  0  0  0  0  0  0  0  0  0  0
    1.7341   -4.9989    0.0000 C   0  0  0  0  0  0  0  0  0  0  0  0
    1.7298   -5.9989    0.0000 C   0  0  0  0  0  0  0  0  0  0  0  0
    2.5996   -6.5028    0.0000 C   0  0  0  0  0  0  0  0  0  0  0  0
    2.5952   -7.5027    0.0000 Cl  0  0  0  0  0  0  0  0  0  0  0  0
    3.4737   -6.0066    0.0000 C   0  0  0  0  0  0  0  0  0  0  0  0
    3.4692   -5.0015    0.0000 C   0  0  0  0  0  0  0  0  0  0  0  0
    4.3345   -4.5002    0.0000 C   0  0  0  0  0  0  0  0  0  0  0  0
    5.2013   -4.9989    0.0000 O   0  0  0  0  0  0  0  0  0  0  0  0
    4.3330   -3.5002    0.0000 C   0  0  0  0  0  0  0  0  0  0  0  0
    5.1983   -2.9989    0.0000 C   0  0  0  0  0  0  0  0  0  0  0  0
    5.1968   -1.9989    0.0000 C   0  0  0  0  0  0  0  0  0  0  0  0
    4.3240   -1.5001    0.0000 C   0  0  0  0  0  0  0  0  0  0  0  0
    4.3225   -0.5001    0.0000 C   0  0  0  0  0  0  0  0  0  0  0  0
    5.1849    0.0063    0.0000 C   0  0  0  0  0  0  0  0  0  0  0  0
    6.0576   -0.4925    0.0000 C   0  0  0  0  0  0  0  0  0  0  0  0
    6.0680   -1.4976    0.0000 C   0  0  0  0  0  0  0  0  0  0  0  0
    1.7348    0.0000    0.0000 C   0  0  0  0  0  0  0  0  0  0  0  0
    1.7348    1.0051    0.0000 C   0  0  0  0  0  0  0  0  0  0  0  0
  1  2  1  0  0  0  0
  2  7  2  0  0  0  0
  2  3  1  0  0  0  0
  3  4  2  0  0  0  0
  4  5  1  0  0  0  0
  5  6  2  0  0  0  0
  6  7  1  0  0  0  0
  7  8  1  0  0  0  0
  8 35  1  0  0  0  0
  8  9  1  0  0  0  0
  9 10  1  0  0  0  0
 10 11  1  0  0  0  0
 11 12  1  0  0  0  0
 12 13  1  0  0  0  0
 13 14  1  0  0  0  0
 13 15  1  0  0  0  0
 15 16  1  0  0  0  0
 16 17  1  0  0  0  0
 17 23  2  0  0  0  0
 17 18  1  0  0  0  0
 18 19  2  0  0  0  0
 19 20  1  0  0  0  0
 20 21  1  0  0  0  0
 20 22  2  0  0  0  0
 22 23  1  0  0  0  0
 23 24  1  0  0  0  0
 24 25  2  0  0  0  0
 24 26  1  0  0  0  0
 26 27  1  0  0  0  0
 27 28  1  0  0  0  0
 28 33  2  0  0  0  0
 28 29  1  0  0  0  0
 29 30  2  0  0  0  0
 30 31  1  0  0  0  0
 31 32  2  0  0  0  0
 32 33  1  0  0  0  0
 11 34  1  0  0  0  0
 34 35  1  0  0  0  0
M  END
> <ID>
372348

$$$$
244192
  -OEChem-05171416412D

 32 34  0     1  0  0  0  0  0999 V2000
    2.6054    3.4976    0.0000 C   0  0  0  0  0  0  0  0  0  0  0  0
    1.7379    3.0001    0.0000 O   0  0  0  0  0  0  0  0  0  0  0  0
    1.7350    2.0001    0.0000 C   0  0  0  0  0  0  0  0  0  0  0  0
    2.5995    1.4976    0.0000 O   0  0  0  0  0  0  0  0  0  0  0  0
    0.8675    1.5027    0.0000 C   0  0  0  0  0  0  0  0  0  0  0  0
    0.8675    0.4975    0.0000 C   0  0  0  0  0  0  0  0  0  0  0  0
    0.0000    0.0000    0.0000 C   0  0  0  0  0  0  0  0  0  0  0  0
   -0.8675    0.4975    0.0000 C   0  0  0  0  0  0  0  0  0  0  0  0
   -1.7328   -0.0038    0.0000 N   0  0  0  0  0  0  0  0  0  0  0  0
   -1.7313   -1.0038    0.0000 C   0  0  0  0  0  0  0  0  0  0  0  0
   -2.5966   -1.5050    0.0000 C   0  0  3  0  0  0  0  0  0  0  0  0
   -3.4634   -1.0063    0.0000 O   0  0  0  0  0  0  0  0  0  0  0  0
   -2.5952   -2.5050    0.0000 C   0  0  0  0  0  0  0  0  0  0  0  0
   -3.4605   -3.0063    0.0000 O   0  0  0  0  0  0  0  0  0  0  0  0
   -3.4590   -4.0063    0.0000 C   0  0  0  0  0  0  0  0  0  0  0  0
   -2.5930   -4.5063    0.0000 C   0  0  0  0  0  0  0  0  0  0  0  0
   -2.5872   -5.5063    0.0000 C   0  0  0  0  0  0  0  0  0  0  0  0
   -3.4563   -6.0114    0.0000 C   0  0  0  0  0  0  0  0  0  0  0  0
   -4.3311   -5.5165    0.0000 C   0  0  0  0  0  0  0  0  0  0  0  0
   -4.3281   -4.5114    0.0000 C   0  0  0  0  0  0  0  0  0  0  0  0
   -5.1941   -4.0113    0.0000 C   0  0  0  0  0  0  0  0  0  0  0  0
   -5.1941   -3.0113    0.0000 O   0  0  0  0  0  0  0  0  0  0  0  0
   -6.0602   -4.5113    0.0000 C   0  0  0  0  0  0  0  0  0  0  0  0
   -6.9262   -4.0113    0.0000 C   0  0  0  0  0  0  0  0  0  0  0  0
   -7.7922   -4.5112    0.0000 C   0  0  0  0  0  0  0  0  0  0  0  0
   -7.7893   -5.5164    0.0000 C   0  0  0  0  0  0  0  0  0  0  0  0
   -8.6553   -6.0164    0.0000 C   0  0  0  0  0  0  0  0  0  0  0  0
   -9.5243   -5.5215    0.0000 C   0  0  0  0  0  0  0  0  0  0  0  0
   -9.5272   -4.5163    0.0000 C   0  0  0  0  0  0  0  0  0  0  0  0
   -8.6612   -4.0060    0.0000 C   0  0  0  0  0  0  0  0  0  0  0  0
   -0.8675    1.5027    0.0000 C   0  0  0  0  0  0  0  0  0  0  0  0
    0.0000    2.0104    0.0000 C   0  0  0  0  0  0  0  0  0  0  0  0
  1  2  1  0  0  0  0
  2  3  1  0  0  0  0
  3  4  2  0  0  0  0
  3  5  1  0  0  0  0
  5 32  2  0  0  0  0
  5  6  1  0  0  0  0
  6  7  2  0  0  0  0
  7  8  1  0  0  0  0
  8  9  1  0  0  0  0
  9 10  1  0  0  0  0
 10 11  1  0  0  0  0
 11 12  1  0  0  0  0
 11 13  1  0  0  0  0
 13 14  1  0  0  0  0
 14 15  1  0  0  0  0
 15 20  2  0  0  0  0
 15 16  1  0  0  0  0
 16 17  2  0  0  0  0
 17 18  1  0  0  0  0
 18 19  2  0  0  0  0
 19 20  1  0  0  0  0
 20 21  1  0  0  0  0
 21 22  2  0  0  0  0
 21 23  1  0  0  0  0
 23 24  1  0  0  0  0
 24 25  1  0  0  0  0
 25 30  2  0  0  0  0
 25 26  1  0  0  0  0
 26 27  2  0  0  0  0
 27 28  1  0  0  0  0
 28 29  2  0  0  0  0
 29 30  1  0  0  0  0
  8 31  2  0  0  0  0
 31 32  1  0  0  0  0
M  END
> <ID>
244192

$$$$
372343
  -OEChem-05171416412D

 30 32  0     1  0  0  0  0  0999 V2000
   -0.0000    6.0104    0.0000 C   0  0  0  0  0  0  0  0  0  0  0  0
   -0.0000    5.0104    0.0000 C   0  0  0  0  0  0  0  0  0  0  0  0
   -0.8660    4.5104    0.0000 O   0  0  0  0  0  0  0  0  0  0  0  0
    0.8660    4.5104    0.0000 O   0  0  0  0  0  0  0  0  0  0  0  0
    0.8660    3.5104    0.0000 C   0  0  3  0  0  0  0  0  0  0  0  0
    1.7321    3.0104    0.0000 C   0  0  0  0  0  0  0  0  0  0  0  0
    2.5981    3.5104    0.0000 O   0  0  0  0  0  0  0  0  0  0  0  0
    3.4641    3.0104    0.0000 C   0  0  0  0  0  0  0  0  0  0  0  0
    4.3309    3.5092    0.0000 C   0  0  0  0  0  0  0  0  0  0  0  0
    5.1991    3.0129    0.0000 C   0  0  0  0  0  0  0  0  0  0  0  0
    5.2006    2.0077    0.0000 C   0  0  0  0  0  0  0  0  0  0  0  0
    4.3338    1.4988    0.0000 C   0  0  0  0  0  0  0  0  0  0  0  0
    3.4656    2.0052    0.0000 C   0  0  0  0  0  0  0  0  0  0  0  0
    2.5988    1.5065    0.0000 C   0  0  0  0  0  0  0  0  0  0  0  0
    1.7335    2.0078    0.0000 O   0  0  0  0  0  0  0  0  0  0  0  0
    2.5973    0.5065    0.0000 C   0  0  0  0  0  0  0  0  0  0  0  0
    1.7305    0.0078    0.0000 C   0  0  0  0  0  0  0  0  0  0  0  0
    1.7290   -0.9922    0.0000 C   0  0  0  0  0  0  0  0  0  0  0  0
    2.6003   -1.4935    0.0000 C   0  0  0  0  0  0  0  0  0  0  0  0
    2.5988   -2.4936    0.0000 C   0  0  0  0  0  0  0  0  0  0  0  0
    1.7350   -2.9973    0.0000 C   0  0  0  0  0  0  0  0  0  0  0  0
    0.8637   -2.4960    0.0000 C   0  0  0  0  0  0  0  0  0  0  0  0
    0.8563   -1.4909    0.0000 C   0  0  0  0  0  0  0  0  0  0  0  0
   -0.0000    3.0104    0.0000 C   0  0  0  0  0  0  0  0  0  0  0  0
   -0.0000    2.0104    0.0000 N   0  0  0  0  0  0  0  0  0  0  0  0
   -0.8675    1.5027    0.0000 C   0  0  0  0  0  0  0  0  0  0  0  0
   -0.8675    0.4975    0.0000 C   0  0  0  0  0  0  0  0  0  0  0  0
    0.0000    0.0000    0.0000 C   0  0  0  0  0  0  0  0  0  0  0  0
    0.8675    0.4975    0.0000 C   0  0  0  0  0  0  0  0  0  0  0  0
    0.8675    1.5027    0.0000 C   0  0  0  0  0  0  0  0  0  0  0  0
  1  2  1  0  0  0  0
  2  3  2  0  0  0  0
  2  4  1  0  0  0  0
  4  5  1  0  0  0  0
  5  6  1  0  0  0  0
  6  7  1  0  0  0  0
  7  8  1  0  0  0  0
  8 13  2  0  0  0  0
  8  9  1  0  0  0  0
  9 10  2  0  0  0  0
 10 11  1  0  0  0  0
 11 12  2  0  0  0  0
 12 13  1  0  0  0  0
 13 14  1  0  0  0  0
 14 15  2  0  0  0  0
 14 16  1  0  0  0  0
 16 17  1  0  0  0  0
 17 18  1  0  0  0  0
 18 23  2  0  0  0  0
 18 19  1  0  0  0  0
 19 20  2  0  0  0  0
 20 21  1  0  0  0  0
 21 22  2  0  0  0  0
 22 23  1  0  0  0  0
  5 24  1  0  0  0  0
 24 25  1  0  0  0  0
 25 30  1  0  0  0  0
 25 26  1  0  0  0  0
 26 27  1  0  0  0  0
 27 28  1  0  0  0  0
 28 29  1  0  0  0  0
 29 30  1  0  0  0  0
M  END
> <ID>
372343

$$$$
372338
  -OEChem-05171416412D

 36 39  0     1  0  0  0  0  0999 V2000
   -7.8005    8.5098    0.0000 C   0  0  0  0  0  0  0  0  0  0  0  0
   -7.8034    7.5098    0.0000 O   0  0  0  0  0  0  0  0  0  0  0  0
   -6.9388    7.0073    0.0000 C   0  0  0  0  0  0  0  0  0  0  0  0
   -6.0683    7.5099    0.0000 C   0  0  0  0  0  0  0  0  0  0  0  0
   -5.2037    7.0075    0.0000 C   0  0  0  0  0  0  0  0  0  0  0  0
   -5.2008    6.0074    0.0000 C   0  0  0  0  0  0  0  0  0  0  0  0
   -4.3340    5.5087    0.0000 C   0  0  0  0  0  0  0  0  0  0  0  0
   -3.4687    6.0100    0.0000 C   0  0  0  0  0  0  0  0  0  0  0  0
   -2.6019    5.5113    0.0000 C   0  0  0  0  0  0  0  0  0  0  0  0
   -2.6004    4.5113    0.0000 O   0  0  0  0  0  0  0  0  0  0  0  0
   -1.7367    6.0126    0.0000 C   0  0  0  0  0  0  0  0  0  0  0  0
   -1.7367    7.0127    0.0000 C   0  0  0  0  0  0  0  0  0  0  0  0
   -0.8736    7.5177    0.0000 C   0  0  0  0  0  0  0  0  0  0  0  0
   -0.0016    7.0177    0.0000 C   0  0  0  0  0  0  0  0  0  0  0  0
    0.0073    6.0126    0.0000 C   0  0  0  0  0  0  0  0  0  0  0  0
   -0.8647    5.5126    0.0000 C   0  0  0  0  0  0  0  0  0  0  0  0
   -0.8647    4.5126    0.0000 O   0  0  0  0  0  0  0  0  0  0  0  0
    0.0014    4.0126    0.0000 C   0  0  0  0  0  0  0  0  0  0  0  0
    0.0014    3.0126    0.0000 C   0  0  3  0  0  0  0  0  0  0  0  0
   -0.8647    2.5126    0.0000 O   0  0  0  0  0  0  0  0  0  0  0  0
    0.8674    2.5126    0.0000 C   0  0  0  0  0  0  0  0  0  0  0  0
    0.8674    1.5126    0.0000 N   0  0  0  0  0  0  0  0  0  0  0  0
    0.0000    1.0051    0.0000 C   0  0  0  0  0  0  0  0  0  0  0  0
    0.0000    0.0000    0.0000 C   0  0  0  0  0  0  0  0  0  0  0  0
    0.8674   -0.4976    0.0000 N   0  0  0  0  0  0  0  0  0  0  0  0
    1.7348    0.0000    0.0000 C   0  0  0  0  0  0  0  0  0  0  0  0
    1.7348    1.0051    0.0000 C   0  0  0  0  0  0  0  0  0  0  0  0
    0.8674   -1.4976    0.0000 C   0  0  0  0  0  0  0  0  0  0  0  0
    1.7327   -1.9989    0.0000 C   0  0  0  0  0  0  0  0  0  0  0  0
    1.7371   -2.9989    0.0000 C   0  0  0  0  0  0  0  0  0  0  0  0
    0.8673   -3.5028    0.0000 C   0  0  0  0  0  0  0  0  0  0  0  0
   -0.0069   -3.0066    0.0000 C   0  0  0  0  0  0  0  0  0  0  0  0
   -0.0024   -2.0015    0.0000 C   0  0  0  0  0  0  0  0  0  0  0  0
   -0.8677   -1.5002    0.0000 C   0  0  0  0  0  0  0  0  0  0  0  0
   -6.0713    5.5048    0.0000 C   0  0  0  0  0  0  0  0  0  0  0  0
   -6.9447    6.0022    0.0000 C   0  0  0  0  0  0  0  0  0  0  0  0
  1  2  1  0  0  0  0
  2  3  1  0  0  0  0
  3 36  2  0  0  0  0
  3  4  1  0  0  0  0
  4  5  2  0  0  0  0
  5  6  1  0  0  0  0
  6  7  1  0  0  0  0
  7  8  1  0  0  0  0
  8  9  1  0  0  0  0
  9 10  2  0  0  0  0
  9 11  1  0  0  0  0
 11 16  2  0  0  0  0
 11 12  1  0  0  0  0
 12 13  2  0  0  0  0
 13 14  1  0  0  0  0
 14 15  2  0  0  0  0
 15 16  1  0  0  0  0
 16 17  1  0  0  0  0
 17 18  1  0  0  0  0
 18 19  1  0  0  0  0
 19 20  1  0  0  0  0
 19 21  1  0  0  0  0
 21 22  1  0  0  0  0
 22 27  1  0  0  0  0
 22 23  1  0  0  0  0
 23 24  1  0  0  0  0
 24 25  1  0  0  0  0
 25 26  1  0  0  0  0
 26 27  1  0  0  0  0
 25 28  1  0  0  0  0
 28 33  2  0  0  0  0
 28 29  1  0  0  0  0
 29 30  2  0  0  0  0
 30 31  1  0  0  0  0
 31 32  2  0  0  0  0
 32 33  1  0  0  0  0
 33 34  1  0  0  0  0
  6 35  2  0  0  0  0
 35 36  1  0  0  0  0
M  END
> <ID>
372338

$$$$
